3598
  CDK     0927151942
null
 27 28  0  0  0  0  0  0  0  0999 V2000
    6.2386    0.1416    0.0000 Cl  0  0  0  0  0  0  0  0  0  0  0  0
    6.1198   -1.8794    0.0000 Cl  0  0  0  0  0  0  0  0  0  0  0  0
    2.5369   -3.2057    0.0000 Cl  0  0  0  0  0  0  0  0  0  0  0  0
    3.6674    3.2057    0.0000 Cl  0  0  0  0  0  0  0  0  0  0  0  0
    6.9226    2.0209    0.0000 Cl  0  0  0  0  0  0  0  0  0  0  0  0
    6.0010   -3.2057    0.0000 Cl  0  0  0  0  0  0  0  0  0  0  0  0
    2.5369   -1.2057    0.0000 O   0  0  0  0  0  0  0  0  0  0  0  0
    2.9834    1.3264    0.0000 O   0  0  0  0  0  0  0  0  0  0  0  0
    4.2690   -0.2057    0.0000 C   0  0  0  0  0  0  0  0  0  0  0  0
    4.2690   -1.2057    0.0000 C   0  0  0  0  0  0  0  0  0  0  0  0
    4.6110    0.7340    0.0000 C   0  0  0  0  0  0  0  0  0  0  0  0
    3.4030   -1.7057    0.0000 C   0  0  0  0  0  0  0  0  0  0  0  0
    3.9682    1.5000    0.0000 C   0  0  0  0  0  0  0  0  0  0  0  0
    5.1350   -1.7057    0.0000 C   0  0  0  0  0  0  0  0  0  0  0  0
    5.5958    0.9076    0.0000 C   0  0  0  0  0  0  0  0  0  0  0  0
    4.3102    2.4397    0.0000 C   0  0  0  0  0  0  0  0  0  0  0  0
    3.4030   -2.7057    0.0000 C   0  0  0  0  0  0  0  0  0  0  0  0
    5.1350   -2.7057    0.0000 C   0  0  0  0  0  0  0  0  0  0  0  0
    5.9378    1.8473    0.0000 C   0  0  0  0  0  0  0  0  0  0  0  0
    5.2950    2.6133    0.0000 C   0  0  0  0  0  0  0  0  0  0  0  0
    4.2690   -3.2057    0.0000 C   0  0  0  0  0  0  0  0  0  0  0  0
    3.8180    0.2197    0.0000 H   0  0  0  0  0  0  0  0  0  0  0  0
    4.8796   -0.3134    0.0000 H   0  0  0  0  0  0  0  0  0  0  0  0
    4.2690   -3.8257    0.0000 H   0  0  0  0  0  0  0  0  0  0  0  0
    5.5071    3.1960    0.0000 H   0  0  0  0  0  0  0  0  0  0  0  0
    2.0000   -1.5157    0.0000 H   0  0  0  0  0  0  0  0  0  0  0  0
    2.5849    1.8013    0.0000 H   0  0  0  0  0  0  0  0  0  0  0  0
  1 15  1  0  0  0  0 
  2 14  1  0  0  0  0 
  3 17  1  0  0  0  0 
  4 16  1  0  0  0  0 
  5 19  1  0  0  0  0 
  6 18  1  0  0  0  0 
  7 12  1  0  0  0  0 
  7 26  1  0  0  0  0 
  8 13  1  0  0  0  0 
  8 27  1  0  0  0  0 
  9 10  1  0  0  0  0 
  9 11  1  0  0  0  0 
  9 22  1  0  0  0  0 
  9 23  1  0  0  0  0 
 10 12  2  0  0  0  0 
 10 14  1  0  0  0  0 
 11 13  2  0  0  0  0 
 11 15  1  0  0  0  0 
 12 17  1  0  0  0  0 
 13 16  1  0  0  0  0 
 14 18  2  0  0  0  0 
 15 19  2  0  0  0  0 
 16 20  2  0  0  0  0 
 17 21  2  0  0  0  0 
 18 21  1  0  0  0  0 
 19 20  1  0  0  0  0 
 20 25  1  0  0  0  0 
 21 24  1  0  0  0  0 
M  END
> <cdk:Title>
3598

> <cdk:Remark>
null

> <PUBCHEM_COMPOUND_CID>
3598

> <PUBCHEM_COMPOUND_CANONICALIZED>
1

> <PUBCHEM_CACTVS_COMPLEXITY>
328

> <PUBCHEM_CACTVS_HBOND_ACCEPTOR>
2

> <PUBCHEM_CACTVS_HBOND_DONOR>
2

> <PUBCHEM_CACTVS_ROTATABLE_BOND>
2

> <PUBCHEM_CACTVS_SUBSKEYS>
AAADcYBwMAAHAAAAAAAAAAAAAAAAAAAAAAAwYAAAAAAAAAABQAAAGgIACAAADAaAmCAwBoAAAgCAAiBCAAACAAAgJUAAikAEC4gIJiKDEhKAcAAkwBEImAeA4OQOACAQIQCJCAQAQCBCARIQCAAAAAAAAA==

> <PUBCHEM_IUPAC_OPENEYE_NAME>
3,4,6-trichloro-2-[(2,3,5-trichloro-6-hydroxy-phenyl)methyl]phenol

> <PUBCHEM_IUPAC_CAS_NAME>
3,4,6-trichloro-2-[(2,3,5-trichloro-6-hydroxyphenyl)methyl]phenol

> <PUBCHEM_IUPAC_NAME>
3,4,6-trichloro-2-[(2,3,5-trichloro-6-hydroxyphenyl)methyl]phenol

> <PUBCHEM_IUPAC_SYSTEMATIC_NAME>
3,4,6-tris(chloranyl)-2-[[2,3,5-tris(chloranyl)-6-oxidanyl-phenyl]methyl]phenol

> <PUBCHEM_IUPAC_TRADITIONAL_NAME>
3,4,6-trichloro-2-(2,3,5-trichloro-6-hydroxy-benzyl)phenol

> <PUBCHEM_IUPAC_INCHI>
InChI=1S/C13H6Cl6O2/c14-6-2-8(16)12(20)4(10(6)18)1-5-11(19)7(15)3-9(17)13(5)21/h2-3,20-21H,1H2

> <PUBCHEM_IUPAC_INCHIKEY>
ACGUYXCXAPNIKK-UHFFFAOYSA-N

> <PUBCHEM_XLOGP3>
7.5

> <PUBCHEM_EXACT_MASS>
405.846945

> <PUBCHEM_MOLECULAR_FORMULA>
C13H6Cl6O2

> <PUBCHEM_MOLECULAR_WEIGHT>
406.90354

> <PUBCHEM_OPENEYE_CAN_SMILES>
C1=C(C(=C(C(=C1Cl)Cl)CC2=C(C(=CC(=C2Cl)Cl)Cl)O)O)Cl

> <PUBCHEM_OPENEYE_ISO_SMILES>
C1=C(C(=C(C(=C1Cl)Cl)CC2=C(C(=CC(=C2Cl)Cl)Cl)O)O)Cl

> <PUBCHEM_CACTVS_TPSA>
40.5

> <PUBCHEM_MONOISOTOPIC_WEIGHT>
403.849896

> <PUBCHEM_TOTAL_CHARGE>
0

> <PUBCHEM_HEAVY_ATOM_COUNT>
21

> <PUBCHEM_ATOM_DEF_STEREO_COUNT>
0

> <PUBCHEM_ATOM_UDEF_STEREO_COUNT>
0

> <PUBCHEM_BOND_DEF_STEREO_COUNT>
0

> <PUBCHEM_BOND_UDEF_STEREO_COUNT>
0

> <PUBCHEM_ISOTOPIC_ATOM_COUNT>
0

> <PUBCHEM_COMPONENT_COUNT>
1

> <PUBCHEM_CACTVS_TAUTO_COUNT>
5

> <PUBCHEM_COORDINATE_TYPE>
1
3

> <PUBCHEM_BONDANNOTATIONS>
10  12  8
10  14  8
11  13  8
11  15  8
12  17  8
13  16  8
14  18  8
15  19  8
16  20  8
17  21  8
18  21  8
19  20  8

> <DRUG_ID>
w1

> <DRUG_NAME>
Hexachlorophene

$$$$
16667682
  CDK     0927151942
null
 29 28  0  0  0  0  0  0  0  0999 V2000
    5.6720    2.8285    0.0000 Cl  0  0  0  0  0  0  0  0  0  0  0  0
    0.5369    4.1200    0.0000 O   0  0  0  0  0  0  0  0  0  0  0  0
    2.2690    5.1200    0.0000 N   0  0  0  0  0  0  0  0  0  0  0  0
    2.2690    4.1200    0.0000 C   0  0  3  0  0  0  0  0  0  0  0  0
    1.4030    3.6200    0.0000 C   0  0  1  0  0  0  0  0  0  0  0  0
    1.4030    2.6200    0.0000 C   0  0  0  0  0  0  0  0  0  0  0  0
    3.1350    3.6200    0.0000 C   0  0  0  0  0  0  0  0  0  0  0  0
    0.5369    2.1200    0.0000 C   0  0  0  0  0  0  0  0  0  0  0  0
    2.2690    2.1200    0.0000 C   0  0  0  0  0  0  0  0  0  0  0  0
    3.1350    5.6200    0.0000 C   0  0  0  0  0  0  0  0  0  0  0  0
    0.5369    1.1200    0.0000 C   0  0  0  0  0  0  0  0  0  0  0  0
    2.2690    1.1200    0.0000 C   0  0  0  0  0  0  0  0  0  0  0  0
    1.4030    0.6200    0.0000 C   0  0  0  0  0  0  0  0  0  0  0  0
    3.0051    4.5450    0.0000 H   0  0  0  0  0  0  0  0  0  0  0  0
    1.4030    4.2400    0.0000 H   0  0  0  0  0  0  0  0  0  0  0  0
    2.8250    3.0831    0.0000 H   0  0  0  0  0  0  0  0  0  0  0  0
    3.6720    3.3100    0.0000 H   0  0  0  0  0  0  0  0  0  0  0  0
    3.4450    4.1569    0.0000 H   0  0  0  0  0  0  0  0  0  0  0  0
    1.7320    5.4300    0.0000 H   0  0  0  0  0  0  0  0  0  0  0  0
    0.0000    2.4300    0.0000 H   0  0  0  0  0  0  0  0  0  0  0  0
    2.8059    2.4300    0.0000 H   0  0  0  0  0  0  0  0  0  0  0  0
    0.5369    4.7400    0.0000 H   0  0  0  0  0  0  0  0  0  0  0  0
    3.4450    5.0831    0.0000 H   0  0  0  0  0  0  0  0  0  0  0  0
    3.6720    5.9300    0.0000 H   0  0  0  0  0  0  0  0  0  0  0  0
    2.8250    6.1569    0.0000 H   0  0  0  0  0  0  0  0  0  0  0  0
    0.0000    0.8100    0.0000 H   0  0  0  0  0  0  0  0  0  0  0  0
    2.8059    0.8100    0.0000 H   0  0  0  0  0  0  0  0  0  0  0  0
    1.4030    0.0000    0.0000 H   0  0  0  0  0  0  0  0  0  0  0  0
    6.6720    2.8285    0.0000 H   0  0  0  0  0  0  0  0  0  0  0  0
  1 29  1  0  0  0  0 
  5  2  1  1  0  0  0 
  2 22  1  0  0  0  0 
  3  4  1  0  0  0  0 
  3 10  1  0  0  0  0 
  3 19  1  0  0  0  0 
  4  5  1  0  0  0  0 
  4  7  1  0  0  0  0 
  4 14  1  0  0  0  0 
  5  6  1  0  0  0  0 
  5 15  1  0  0  0  0 
  6  8  2  0  0  0  0 
  6  9  1  0  0  0  0 
  7 16  1  0  0  0  0 
  7 17  1  0  0  0  0 
  7 18  1  0  0  0  0 
  8 11  1  0  0  0  0 
  8 20  1  0  0  0  0 
  9 12  2  0  0  0  0 
  9 21  1  0  0  0  0 
 10 23  1  0  0  0  0 
 10 24  1  0  0  0  0 
 10 25  1  0  0  0  0 
 11 13  2  0  0  0  0 
 11 26  1  0  0  0  0 
 12 13  1  0  0  0  0 
 12 27  1  0  0  0  0 
 13 28  1  0  0  0  0 
M  END
> <cdk:Title>
16667682

> <cdk:Remark>
null

> <PUBCHEM_COMPOUND_CID>
16667682

> <PUBCHEM_COMPOUND_CANONICALIZED>
1

> <PUBCHEM_CACTVS_COMPLEXITY>
121

> <PUBCHEM_CACTVS_HBOND_ACCEPTOR>
2

> <PUBCHEM_CACTVS_HBOND_DONOR>
3

> <PUBCHEM_CACTVS_ROTATABLE_BOND>
3

> <PUBCHEM_CACTVS_SUBSKEYS>
AAADceByIAAEAAAAAAAAAAAAAAAAAAAAAAAwAAAAAAAAAAABAAAAHgAQCAAADDzhmAYyAILAAgCAAiBCAAACAAAgAAAIiIAICIgKNiKAkRGEcAAk0AEYmAeQwKAOAAAAAAAAAAAAAAAAAAAAAAAAAAAAAA==

> <PUBCHEM_IUPAC_OPENEYE_NAME>
(1R)-2-(methylamino)-1-phenyl-propan-1-ol;hydrochloride

> <PUBCHEM_IUPAC_CAS_NAME>
(1R)-2-(methylamino)-1-phenyl-1-propanol;hydrochloride

> <PUBCHEM_IUPAC_NAME>
(1R)-2-(methylamino)-1-phenylpropan-1-ol;hydrochloride

> <PUBCHEM_IUPAC_SYSTEMATIC_NAME>
(1R)-2-(methylamino)-1-phenyl-propan-1-ol;hydrochloride

> <PUBCHEM_IUPAC_TRADITIONAL_NAME>
(1R)-2-(methylamino)-1-phenyl-propan-1-ol;hydrochloride

> <PUBCHEM_IUPAC_INCHI>
InChI=1S/C10H15NO.ClH/c1-8(11-2)10(12)9-6-4-3-5-7-9;/h3-8,10-12H,1-2H3;1H/t8?,10-;/m0./s1

> <PUBCHEM_IUPAC_INCHIKEY>
BALXUFOVQVENIU-LQRGNCEWSA-N

> <PUBCHEM_EXACT_MASS>
201.092042

> <PUBCHEM_MOLECULAR_FORMULA>
C10H16ClNO

> <PUBCHEM_MOLECULAR_WEIGHT>
201.69314

> <PUBCHEM_OPENEYE_CAN_SMILES>
CC(C(C1=CC=CC=C1)O)NC.Cl

> <PUBCHEM_OPENEYE_ISO_SMILES>
CC([C@@H](C1=CC=CC=C1)O)NC.Cl

> <PUBCHEM_CACTVS_TPSA>
32.3

> <PUBCHEM_MONOISOTOPIC_WEIGHT>
201.092042

> <PUBCHEM_TOTAL_CHARGE>
0

> <PUBCHEM_HEAVY_ATOM_COUNT>
13

> <PUBCHEM_ATOM_DEF_STEREO_COUNT>
1

> <PUBCHEM_ATOM_UDEF_STEREO_COUNT>
1

> <PUBCHEM_BOND_DEF_STEREO_COUNT>
0

> <PUBCHEM_BOND_UDEF_STEREO_COUNT>
0

> <PUBCHEM_ISOTOPIC_ATOM_COUNT>
0

> <PUBCHEM_COMPONENT_COUNT>
2

> <PUBCHEM_CACTVS_TAUTO_COUNT>
1

> <PUBCHEM_COORDINATE_TYPE>
1
5
255

> <PUBCHEM_BONDANNOTATIONS>
11  13  8
12  13  8
5  2  5
4  14  3
6  8  8
6  9  8
8  11  8
9  12  8

> <DRUG_ID>
w10

> <DRUG_NAME>
Ephedra

$$$$
5365247
  CDK     0927151942
null
 36 37  0  0  0  0  0  0  0  0999 V2000
    4.5981   -3.5000    0.0000 Br  0  0  0  0  0  0  0  0  0  0  0  0
    2.8660    2.5000    0.0000 N   0  0  0  0  0  0  0  0  0  0  0  0
    7.1962    1.0000    0.0000 N   0  0  0  0  0  0  0  0  0  0  0  0
    4.5981    0.5000    0.0000 C   0  0  0  0  0  0  0  0  0  0  0  0
    3.7320    2.0000    0.0000 C   0  0  0  0  0  0  0  0  0  0  0  0
    3.7320    1.0000    0.0000 C   0  0  0  0  0  0  0  0  0  0  0  0
    4.5981   -0.5000    0.0000 C   0  0  0  0  0  0  0  0  0  0  0  0
    5.4641    1.0000    0.0000 C   0  0  0  0  0  0  0  0  0  0  0  0
    3.7320   -1.0000    0.0000 C   0  0  0  0  0  0  0  0  0  0  0  0
    5.4641   -1.0000    0.0000 C   0  0  0  0  0  0  0  0  0  0  0  0
    2.8660    3.5000    0.0000 C   0  0  0  0  0  0  0  0  0  0  0  0
    2.0000    2.0000    0.0000 C   0  0  0  0  0  0  0  0  0  0  0  0
    5.4641    2.0000    0.0000 C   0  0  0  0  0  0  0  0  0  0  0  0
    6.3301    0.5000    0.0000 C   0  0  0  0  0  0  0  0  0  0  0  0
    3.7320   -2.0000    0.0000 C   0  0  0  0  0  0  0  0  0  0  0  0
    5.4641   -2.0000    0.0000 C   0  0  0  0  0  0  0  0  0  0  0  0
    4.5981   -2.5000    0.0000 C   0  0  0  0  0  0  0  0  0  0  0  0
    6.3301    2.5000    0.0000 C   0  0  0  0  0  0  0  0  0  0  0  0
    7.1962    2.0000    0.0000 C   0  0  0  0  0  0  0  0  0  0  0  0
    4.3426    1.8923    0.0000 H   0  0  0  0  0  0  0  0  0  0  0  0
    3.9441    2.5826    0.0000 H   0  0  0  0  0  0  0  0  0  0  0  0
    3.1951    0.6900    0.0000 H   0  0  0  0  0  0  0  0  0  0  0  0
    3.1951   -0.6900    0.0000 H   0  0  0  0  0  0  0  0  0  0  0  0
    6.0010   -0.6900    0.0000 H   0  0  0  0  0  0  0  0  0  0  0  0
    1.6900    2.5369    0.0000 H   0  0  0  0  0  0  0  0  0  0  0  0
    3.4860    3.5000    0.0000 H   0  0  0  0  0  0  0  0  0  0  0  0
    1.4631    1.6900    0.0000 H   0  0  0  0  0  0  0  0  0  0  0  0
    2.3100    1.4631    0.0000 H   0  0  0  0  0  0  0  0  0  0  0  0
    2.8660    4.1200    0.0000 H   0  0  0  0  0  0  0  0  0  0  0  0
    2.2460    3.5000    0.0000 H   0  0  0  0  0  0  0  0  0  0  0  0
    4.9272    2.3100    0.0000 H   0  0  0  0  0  0  0  0  0  0  0  0
    6.3301   -0.1200    0.0000 H   0  0  0  0  0  0  0  0  0  0  0  0
    3.1951   -2.3100    0.0000 H   0  0  0  0  0  0  0  0  0  0  0  0
    6.0010   -2.3100    0.0000 H   0  0  0  0  0  0  0  0  0  0  0  0
    6.3301    3.1200    0.0000 H   0  0  0  0  0  0  0  0  0  0  0  0
    7.7331    2.3100    0.0000 H   0  0  0  0  0  0  0  0  0  0  0  0
  1 17  1  0  0  0  0 
  2  5  1  0  0  0  0 
  2 11  1  0  0  0  0 
  2 12  1  0  0  0  0 
  3 14  1  0  0  0  0 
  3 19  2  0  0  0  0 
  4  6  2  0  0  0  0 
  4  7  1  0  0  0  0 
  4  8  1  0  0  0  0 
  5  6  1  0  0  0  0 
  5 20  1  0  0  0  0 
  5 21  1  0  0  0  0 
  6 22  1  0  0  0  0 
  7  9  2  0  0  0  0 
  7 10  1  0  0  0  0 
  8 13  1  0  0  0  0 
  8 14  2  0  0  0  0 
  9 15  1  0  0  0  0 
  9 23  1  0  0  0  0 
 10 16  2  0  0  0  0 
 10 24  1  0  0  0  0 
 11 26  1  0  0  0  0 
 11 29  1  0  0  0  0 
 11 30  1  0  0  0  0 
 12 25  1  0  0  0  0 
 12 27  1  0  0  0  0 
 12 28  1  0  0  0  0 
 13 18  2  0  0  0  0 
 13 31  1  0  0  0  0 
 14 32  1  0  0  0  0 
 15 17  2  0  0  0  0 
 15 33  1  0  0  0  0 
 16 17  1  0  0  0  0 
 16 34  1  0  0  0  0 
 18 19  1  0  0  0  0 
 18 35  1  0  0  0  0 
 19 36  1  0  0  0  0 
M  END
> <cdk:Title>
5365247

> <cdk:Remark>
null

> <PUBCHEM_COMPOUND_CID>
5365247

> <PUBCHEM_COMPOUND_CANONICALIZED>
1

> <PUBCHEM_CACTVS_COMPLEXITY>
293

> <PUBCHEM_CACTVS_HBOND_ACCEPTOR>
2

> <PUBCHEM_CACTVS_HBOND_DONOR>
0

> <PUBCHEM_CACTVS_ROTATABLE_BOND>
4

> <PUBCHEM_CACTVS_SUBSKEYS>
AAADceB7AAAAEAAAAAAAAAAAAAAAAAAAAAA8QAAAAAAAAAABwAAAHABAAAABrADBGgQ+gJMIEACgAjBnRACCgCAxAiQI2CA4ZLgIIOLAkZGEIAhggADIyhcQgMAOAgAAAAAAAAAEAAAAAAAAAAAAAAAAAA==

> <PUBCHEM_IUPAC_OPENEYE_NAME>
(Z)-3-(4-bromophenyl)-N,N-dimethyl-3-(3-pyridyl)prop-2-en-1-amine

> <PUBCHEM_IUPAC_CAS_NAME>
(Z)-3-(4-bromophenyl)-N,N-dimethyl-3-(3-pyridinyl)-2-propen-1-amine

> <PUBCHEM_IUPAC_NAME>
(Z)-3-(4-bromophenyl)-N,N-dimethyl-3-pyridin-3-ylprop-2-en-1-amine

> <PUBCHEM_IUPAC_SYSTEMATIC_NAME>
(Z)-3-(4-bromophenyl)-N,N-dimethyl-3-pyridin-3-yl-prop-2-en-1-amine

> <PUBCHEM_IUPAC_TRADITIONAL_NAME>
[(Z)-3-(4-bromophenyl)-3-(3-pyridyl)allyl]-dimethyl-amine

> <PUBCHEM_IUPAC_INCHI>
InChI=1S/C16H17BrN2/c1-19(2)11-9-16(14-4-3-10-18-12-14)13-5-7-15(17)8-6-13/h3-10,12H,11H2,1-2H3/b16-9-

> <PUBCHEM_IUPAC_INCHIKEY>
OYPPVKRFBIWMSX-SXGWCWSVSA-N

> <PUBCHEM_XLOGP3_AA>
3.9

> <PUBCHEM_EXACT_MASS>
316.057511

> <PUBCHEM_MOLECULAR_FORMULA>
C16H17BrN2

> <PUBCHEM_MOLECULAR_WEIGHT>
317.22358

> <PUBCHEM_OPENEYE_CAN_SMILES>
CN(C)CC=C(C1=CC=C(C=C1)Br)C2=CN=CC=C2

> <PUBCHEM_OPENEYE_ISO_SMILES>
CN(C)C/C=C(/C1=CC=C(C=C1)Br)\C2=CN=CC=C2

> <PUBCHEM_CACTVS_TPSA>
16.1

> <PUBCHEM_MONOISOTOPIC_WEIGHT>
316.057511

> <PUBCHEM_TOTAL_CHARGE>
0

> <PUBCHEM_HEAVY_ATOM_COUNT>
19

> <PUBCHEM_ATOM_DEF_STEREO_COUNT>
0

> <PUBCHEM_ATOM_UDEF_STEREO_COUNT>
0

> <PUBCHEM_BOND_DEF_STEREO_COUNT>
1

> <PUBCHEM_BOND_UDEF_STEREO_COUNT>
0

> <PUBCHEM_ISOTOPIC_ATOM_COUNT>
0

> <PUBCHEM_COMPONENT_COUNT>
1

> <PUBCHEM_CACTVS_TAUTO_COUNT>
1

> <PUBCHEM_COORDINATE_TYPE>
1
5
255

> <PUBCHEM_BONDANNOTATIONS>
10  16  8
13  18  8
15  17  8
16  17  8
18  19  8
3  14  8
3  19  8
7  10  8
7  9  8
8  13  8
8  14  8
9  15  8

> <DRUG_ID>
w100

> <DRUG_NAME>
Zimeldine

$$$$
3826
  CDK     0927151942
null
 32 34  0  0  0  0  0  0  0  0999 V2000
    8.4299   -2.2496    0.0000 O   0  0  0  0  0  0  0  0  0  0  0  0
    6.7836   -2.7876    0.0000 O   0  0  0  0  0  0  0  0  0  0  0  0
    5.6036    2.2151    0.0000 O   0  0  0  0  0  0  0  0  0  0  0  0
    6.1945    0.2119    0.0000 N   0  0  0  0  0  0  0  0  0  0  0  0
    7.1407   -1.0928    0.0000 C   0  0  3  0  0  0  0  0  0  0  0  0
    7.7244   -0.2881    0.0000 C   0  0  0  0  0  0  0  0  0  0  0  0
    7.1407    0.5167    0.0000 C   0  0  0  0  0  0  0  0  0  0  0  0
    6.1945   -0.7881    0.0000 C   0  0  0  0  0  0  0  0  0  0  0  0
    5.2435    0.5209    0.0000 C   0  0  0  0  0  0  0  0  0  0  0  0
    5.2435   -1.0971    0.0000 C   0  0  0  0  0  0  0  0  0  0  0  0
    4.6557   -0.2881    0.0000 C   0  0  0  0  0  0  0  0  0  0  0  0
    7.4514   -2.0433    0.0000 C   0  0  0  0  0  0  0  0  0  0  0  0
    4.9344    1.4720    0.0000 C   0  0  0  0  0  0  0  0  0  0  0  0
    3.9563    1.6799    0.0000 C   0  0  0  0  0  0  0  0  0  0  0  0
    3.6473    2.6310    0.0000 C   0  0  0  0  0  0  0  0  0  0  0  0
    3.2872    0.9368    0.0000 C   0  0  0  0  0  0  0  0  0  0  0  0
    2.6691    2.8389    0.0000 C   0  0  0  0  0  0  0  0  0  0  0  0
    2.3090    1.1447    0.0000 C   0  0  0  0  0  0  0  0  0  0  0  0
    2.0000    2.0957    0.0000 C   0  0  0  0  0  0  0  0  0  0  0  0
    7.9804   -1.2247    0.0000 H   0  0  0  0  0  0  0  0  0  0  0  0
    8.1852   -0.7028    0.0000 H   0  0  0  0  0  0  0  0  0  0  0  0
    8.1852    0.1266    0.0000 H   0  0  0  0  0  0  0  0  0  0  0  0
    7.6781    0.8259    0.0000 H   0  0  0  0  0  0  0  0  0  0  0  0
    6.8897    1.0836    0.0000 H   0  0  0  0  0  0  0  0  0  0  0  0
    5.0519   -1.6868    0.0000 H   0  0  0  0  0  0  0  0  0  0  0  0
    4.0357   -0.2881    0.0000 H   0  0  0  0  0  0  0  0  0  0  0  0
    8.6225   -2.8389    0.0000 H   0  0  0  0  0  0  0  0  0  0  0  0
    4.0621    3.0917    0.0000 H   0  0  0  0  0  0  0  0  0  0  0  0
    3.4788    0.3471    0.0000 H   0  0  0  0  0  0  0  0  0  0  0  0
    2.4775    3.4285    0.0000 H   0  0  0  0  0  0  0  0  0  0  0  0
    1.8942    0.6839    0.0000 H   0  0  0  0  0  0  0  0  0  0  0  0
    1.3936    2.2246    0.0000 H   0  0  0  0  0  0  0  0  0  0  0  0
  1 12  1  0  0  0  0 
  1 27  1  0  0  0  0 
  2 12  2  0  0  0  0 
  3 13  2  0  0  0  0 
  4  7  1  0  0  0  0 
  4  8  1  0  0  0  0 
  4  9  1  0  0  0  0 
  5  6  1  0  0  0  0 
  5  8  1  0  0  0  0 
  5 12  1  0  0  0  0 
  5 20  1  0  0  0  0 
  6  7  1  0  0  0  0 
  6 21  1  0  0  0  0 
  6 22  1  0  0  0  0 
  7 23  1  0  0  0  0 
  7 24  1  0  0  0  0 
  8 10  2  0  0  0  0 
  9 11  2  0  0  0  0 
  9 13  1  0  0  0  0 
 10 11  1  0  0  0  0 
 10 25  1  0  0  0  0 
 11 26  1  0  0  0  0 
 13 14  1  0  0  0  0 
 14 15  2  0  0  0  0 
 14 16  1  0  0  0  0 
 15 17  1  0  0  0  0 
 15 28  1  0  0  0  0 
 16 18  2  0  0  0  0 
 16 29  1  0  0  0  0 
 17 19  2  0  0  0  0 
 17 30  1  0  0  0  0 
 18 19  1  0  0  0  0 
 18 31  1  0  0  0  0 
 19 32  1  0  0  0  0 
M  END
> <cdk:Title>
3826

> <cdk:Remark>
null

> <PUBCHEM_COMPOUND_CID>
3826

> <PUBCHEM_COMPOUND_CANONICALIZED>
1

> <PUBCHEM_CACTVS_COMPLEXITY>
376

> <PUBCHEM_CACTVS_HBOND_ACCEPTOR>
3

> <PUBCHEM_CACTVS_HBOND_DONOR>
1

> <PUBCHEM_CACTVS_ROTATABLE_BOND>
3

> <PUBCHEM_CACTVS_SUBSKEYS>
AAADccByMAAAAAAAAAAAAAAAAAAAAWLAAAAwAAAAAAAWAAABwAAAHgAACAAADQzBngQwiJMMEgCoA6TyTACCgCAnAiAI2CG4ZNgIIPrAlbGEYQhmwAHIyYe8yeCeAAAAAAAAAAAAAAAAAAAAAAAAAAAAAA==

> <PUBCHEM_IUPAC_OPENEYE_NAME>
5-benzoyl-2,3-dihydro-1H-pyrrolizine-1-carboxylic acid

> <PUBCHEM_IUPAC_CAS_NAME>
5-benzoyl-2,3-dihydro-1H-pyrrolizine-1-carboxylic acid

> <PUBCHEM_IUPAC_NAME>
5-benzoyl-2,3-dihydro-1H-pyrrolizine-1-carboxylic acid

> <PUBCHEM_IUPAC_SYSTEMATIC_NAME>
5-(phenylcarbonyl)-2,3-dihydro-1H-pyrrolizine-1-carboxylic acid

> <PUBCHEM_IUPAC_TRADITIONAL_NAME>
5-benzoyl-2,3-dihydro-1H-pyrrolizine-1-carboxylic acid

> <PUBCHEM_IUPAC_INCHI>
InChI=1S/C15H13NO3/c17-14(10-4-2-1-3-5-10)13-7-6-12-11(15(18)19)8-9-16(12)13/h1-7,11H,8-9H2,(H,18,19)

> <PUBCHEM_IUPAC_INCHIKEY>
OZWKMVRBQXNZKK-UHFFFAOYSA-N

> <PUBCHEM_XLOGP3_AA>
1.9

> <PUBCHEM_EXACT_MASS>
255.089543

> <PUBCHEM_MOLECULAR_FORMULA>
C15H13NO3

> <PUBCHEM_MOLECULAR_WEIGHT>
255.26862

> <PUBCHEM_OPENEYE_CAN_SMILES>
C1CN2C(=CC=C2C(=O)C3=CC=CC=C3)C1C(=O)O

> <PUBCHEM_OPENEYE_ISO_SMILES>
C1CN2C(=CC=C2C(=O)C3=CC=CC=C3)C1C(=O)O

> <PUBCHEM_CACTVS_TPSA>
59.3

> <PUBCHEM_MONOISOTOPIC_WEIGHT>
255.089543

> <PUBCHEM_TOTAL_CHARGE>
0

> <PUBCHEM_HEAVY_ATOM_COUNT>
19

> <PUBCHEM_ATOM_DEF_STEREO_COUNT>
0

> <PUBCHEM_ATOM_UDEF_STEREO_COUNT>
1

> <PUBCHEM_BOND_DEF_STEREO_COUNT>
0

> <PUBCHEM_BOND_UDEF_STEREO_COUNT>
0

> <PUBCHEM_ISOTOPIC_ATOM_COUNT>
0

> <PUBCHEM_COMPONENT_COUNT>
1

> <PUBCHEM_CACTVS_TAUTO_COUNT>
4

> <PUBCHEM_COORDINATE_TYPE>
1
5
255

> <PUBCHEM_BONDANNOTATIONS>
10  11  8
14  15  8
14  16  8
15  17  8
16  18  8
17  19  8
18  19  8
4  8  8
4  9  8
5  20  3
8  10  8
9  11  8

> <DRUG_ID>
w101

> <DRUG_NAME>
Ketorolac

$$$$
10518
  CDK     0927151942
null
 36 37  0  0  0  0  0  0  0  0999 V2000
    4.3246   -1.3060    0.0000 O   0  0  0  0  0  0  0  0  0  0  0  0
    6.0567    1.6940    0.0000 O   0  0  0  0  0  0  0  0  0  0  0  0
    7.7887   -1.3060    0.0000 O   0  0  0  0  0  0  0  0  0  0  0  0
    6.9227    0.1940    0.0000 N   0  0  0  0  0  0  0  0  0  0  0  0
    6.0567   -1.3060    0.0000 N   0  0  0  0  0  0  0  0  0  0  0  0
    5.1906    0.1940    0.0000 C   0  0  0  0  0  0  0  0  0  0  0  0
    4.1906    0.1940    0.0000 C   0  0  0  0  0  0  0  0  0  0  0  0
    3.7568   -0.7070    0.0000 C   0  0  0  0  0  0  0  0  0  0  0  0
    2.7818   -0.9295    0.0000 C   0  0  0  0  0  0  0  0  0  0  0  0
    4.6906    1.0600    0.0000 C   0  0  0  0  0  0  0  0  0  0  0  0
    2.0000   -0.3060    0.0000 C   0  0  0  0  0  0  0  0  0  0  0  0
    2.0000    0.6940    0.0000 C   0  0  0  0  0  0  0  0  0  0  0  0
    3.7568    1.0949    0.0000 C   0  0  0  0  0  0  0  0  0  0  0  0
    2.7818    1.3175    0.0000 C   0  0  0  0  0  0  0  0  0  0  0  0
    5.1906   -0.8060    0.0000 C   0  0  0  0  0  0  0  0  0  0  0  0
    6.0567    0.6940    0.0000 C   0  0  0  0  0  0  0  0  0  0  0  0
    5.1906    1.9260    0.0000 C   0  0  0  0  0  0  0  0  0  0  0  0
    6.9227   -0.8060    0.0000 C   0  0  0  0  0  0  0  0  0  0  0  0
    3.7568   -1.3270    0.0000 H   0  0  0  0  0  0  0  0  0  0  0  0
    4.3612   -0.8450    0.0000 H   0  0  0  0  0  0  0  0  0  0  0  0
    2.2971   -1.3161    0.0000 H   0  0  0  0  0  0  0  0  0  0  0  0
    3.0508   -1.4881    0.0000 H   0  0  0  0  0  0  0  0  0  0  0  0
    4.2157    1.4585    0.0000 H   0  0  0  0  0  0  0  0  0  0  0  0
    4.2157    0.6615    0.0000 H   0  0  0  0  0  0  0  0  0  0  0  0
    1.3955   -0.1681    0.0000 H   0  0  0  0  0  0  0  0  0  0  0  0
    1.7310   -0.8646    0.0000 H   0  0  0  0  0  0  0  0  0  0  0  0
    1.7310    1.2526    0.0000 H   0  0  0  0  0  0  0  0  0  0  0  0
    1.3955    0.5560    0.0000 H   0  0  0  0  0  0  0  0  0  0  0  0
    4.1433    1.5797    0.0000 H   0  0  0  0  0  0  0  0  0  0  0  0
    3.0508    1.8761    0.0000 H   0  0  0  0  0  0  0  0  0  0  0  0
    2.2971    1.7040    0.0000 H   0  0  0  0  0  0  0  0  0  0  0  0
    5.7276    1.6160    0.0000 H   0  0  0  0  0  0  0  0  0  0  0  0
    5.5006    2.4630    0.0000 H   0  0  0  0  0  0  0  0  0  0  0  0
    4.6537    2.2360    0.0000 H   0  0  0  0  0  0  0  0  0  0  0  0
    6.0567   -1.9260    0.0000 H   0  0  0  0  0  0  0  0  0  0  0  0
    7.4596    0.5040    0.0000 H   0  0  0  0  0  0  0  0  0  0  0  0
  1 15  2  0  0  0  0 
  2 16  2  0  0  0  0 
  3 18  2  0  0  0  0 
  4 16  1  0  0  0  0 
  4 18  1  0  0  0  0 
  4 36  1  0  0  0  0 
  5 15  1  0  0  0  0 
  5 18  1  0  0  0  0 
  5 35  1  0  0  0  0 
  6  7  1  0  0  0  0 
  6 10  1  0  0  0  0 
  6 15  1  0  0  0  0 
  6 16  1  0  0  0  0 
  7  8  1  0  0  0  0 
  7 13  2  0  0  0  0 
  8  9  1  0  0  0  0 
  8 19  1  0  0  0  0 
  8 20  1  0  0  0  0 
  9 11  1  0  0  0  0 
  9 21  1  0  0  0  0 
  9 22  1  0  0  0  0 
 10 17  1  0  0  0  0 
 10 23  1  0  0  0  0 
 10 24  1  0  0  0  0 
 11 12  1  0  0  0  0 
 11 25  1  0  0  0  0 
 11 26  1  0  0  0  0 
 12 14  1  0  0  0  0 
 12 27  1  0  0  0  0 
 12 28  1  0  0  0  0 
 13 14  1  0  0  0  0 
 13 29  1  0  0  0  0 
 14 30  1  0  0  0  0 
 14 31  1  0  0  0  0 
 17 32  1  0  0  0  0 
 17 33  1  0  0  0  0 
 17 34  1  0  0  0  0 
M  END
> <cdk:Title>
10518

> <cdk:Remark>
null

> <PUBCHEM_COMPOUND_CID>
10518

> <PUBCHEM_COMPOUND_CANONICALIZED>
1

> <PUBCHEM_CACTVS_COMPLEXITY>
406

> <PUBCHEM_CACTVS_HBOND_ACCEPTOR>
3

> <PUBCHEM_CACTVS_HBOND_DONOR>
2

> <PUBCHEM_CACTVS_ROTATABLE_BOND>
2

> <PUBCHEM_CACTVS_SUBSKEYS>
AAADceBzMAAAAAAAAAAAAAAAAAAAAAAAAAAsAAAABAAAAAAAAAAAHgAQAAAADgCBgAADAALAAACIAiFSEAAAAAAgAAAACAEAAAiAABoIwQAEAAAIhSIIAAMYiMCPAAAAAAAAAAAAAAAAAAAAAAAAAAAAAA==

> <PUBCHEM_IUPAC_OPENEYE_NAME>
5-(cyclohepten-1-yl)-5-ethyl-hexahydropyrimidine-2,4,6-trione

> <PUBCHEM_IUPAC_CAS_NAME>
5-(1-cycloheptenyl)-5-ethyl-1,3-diazinane-2,4,6-trione

> <PUBCHEM_IUPAC_NAME>
5-(cyclohepten-1-yl)-5-ethyl-1,3-diazinane-2,4,6-trione

> <PUBCHEM_IUPAC_SYSTEMATIC_NAME>
5-(cyclohepten-1-yl)-5-ethyl-1,3-diazinane-2,4,6-trione

> <PUBCHEM_IUPAC_TRADITIONAL_NAME>
5-(cyclohepten-1-yl)-5-ethyl-barbituric acid

> <PUBCHEM_IUPAC_INCHI>
InChI=1S/C13H18N2O3/c1-2-13(9-7-5-3-4-6-8-9)10(16)14-12(18)15-11(13)17/h7H,2-6,8H2,1H3,(H2,14,15,16,17,18)

> <PUBCHEM_IUPAC_INCHIKEY>
PAZQYDJGLKSCSI-UHFFFAOYSA-N

> <PUBCHEM_XLOGP3>
2

> <PUBCHEM_EXACT_MASS>
250.131742

> <PUBCHEM_MOLECULAR_FORMULA>
C13H18N2O3

> <PUBCHEM_MOLECULAR_WEIGHT>
250.29362

> <PUBCHEM_OPENEYE_CAN_SMILES>
CCC1(C(=O)NC(=O)NC1=O)C2=CCCCCC2

> <PUBCHEM_OPENEYE_ISO_SMILES>
CCC1(C(=O)NC(=O)NC1=O)C2=CCCCCC2

> <PUBCHEM_CACTVS_TPSA>
75.3

> <PUBCHEM_MONOISOTOPIC_WEIGHT>
250.131742

> <PUBCHEM_TOTAL_CHARGE>
0

> <PUBCHEM_HEAVY_ATOM_COUNT>
18

> <PUBCHEM_ATOM_DEF_STEREO_COUNT>
0

> <PUBCHEM_ATOM_UDEF_STEREO_COUNT>
0

> <PUBCHEM_BOND_DEF_STEREO_COUNT>
0

> <PUBCHEM_BOND_UDEF_STEREO_COUNT>
0

> <PUBCHEM_ISOTOPIC_ATOM_COUNT>
0

> <PUBCHEM_COMPONENT_COUNT>
1

> <PUBCHEM_CACTVS_TAUTO_COUNT>
5

> <PUBCHEM_COORDINATE_TYPE>
1
5
255

> <DRUG_ID>
w102

> <DRUG_NAME>
Heptabarbital

$$$$
8269
  CDK     0927151942
null
 49 52  0  0  0  0  0  0  0  0999 V2000
    6.4613   -2.1891    0.0000 O   0  0  0  0  0  0  0  0  0  0  0  0
    3.6482    2.4220    0.0000 O   0  0  0  0  0  0  0  0  0  0  0  0
    8.4759    0.3629    0.0000 O   0  0  0  0  0  0  0  0  0  0  0  0
    2.0000    1.8896    0.0000 O   0  0  0  0  0  0  0  0  0  0  0  0
    9.2325   -1.1952    0.0000 O   0  0  0  0  0  0  0  0  0  0  0  0
    4.8777   -2.9938    0.0000 N   0  0  0  0  0  0  0  0  0  0  0  0
    4.8777   -1.3844    0.0000 C   0  0  0  0  0  0  0  0  0  0  0  0
    3.9315   -1.6891    0.0000 C   0  0  0  0  0  0  0  0  0  0  0  0
    5.7772   -0.9476    0.0000 C   0  0  0  0  0  0  0  0  0  0  0  0
    4.5703   -0.4328    0.0000 C   0  0  0  0  0  0  0  0  0  0  0  0
    5.4613   -2.1891    0.0000 C   0  0  0  0  0  0  0  0  0  0  0  0
    3.9315   -2.6891    0.0000 C   0  0  0  0  0  0  0  0  0  0  0  0
    3.0654   -1.1891    0.0000 C   0  0  0  0  0  0  0  0  0  0  0  0
    3.0654   -3.1891    0.0000 C   0  0  0  0  0  0  0  0  0  0  0  0
    3.5925   -0.2232    0.0000 C   0  0  0  0  0  0  0  0  0  0  0  0
    5.8487    0.0499    0.0000 C   0  0  0  0  0  0  0  0  0  0  0  0
    5.2407    0.3092    0.0000 C   0  0  0  0  0  0  0  0  0  0  0  0
    6.6053   -1.5082    0.0000 C   0  0  0  0  0  0  0  0  0  0  0  0
    2.1994   -1.6891    0.0000 C   0  0  0  0  0  0  0  0  0  0  0  0
    2.1994   -2.6891    0.0000 C   0  0  0  0  0  0  0  0  0  0  0  0
    3.2852    0.7284    0.0000 C   0  0  0  0  0  0  0  0  0  0  0  0
    6.7483    0.4867    0.0000 C   0  0  0  0  0  0  0  0  0  0  0  0
    4.9334    1.2608    0.0000 C   0  0  0  0  0  0  0  0  0  0  0  0
    7.5049   -1.0714    0.0000 C   0  0  0  0  0  0  0  0  0  0  0  0
    3.9556    1.4704    0.0000 C   0  0  0  0  0  0  0  0  0  0  0  0
    7.5763   -0.0739    0.0000 C   0  0  0  0  0  0  0  0  0  0  0  0
    2.6704    2.6316    0.0000 C   0  0  0  0  0  0  0  0  0  0  0  0
    9.3040   -0.1977    0.0000 C   0  0  0  0  0  0  0  0  0  0  0  0
    2.3630    3.5832    0.0000 C   0  0  0  0  0  0  0  0  0  0  0  0
   10.2035    0.2391    0.0000 C   0  0  0  0  0  0  0  0  0  0  0  0
    5.0703   -3.5832    0.0000 H   0  0  0  0  0  0  0  0  0  0  0  0
    3.0654   -0.5691    0.0000 H   0  0  0  0  0  0  0  0  0  0  0  0
    3.0654   -3.8091    0.0000 H   0  0  0  0  0  0  0  0  0  0  0  0
    5.3353    0.3975    0.0000 H   0  0  0  0  0  0  0  0  0  0  0  0
    3.1769   -0.6832    0.0000 H   0  0  0  0  0  0  0  0  0  0  0  0
    6.5610   -2.1266    0.0000 H   0  0  0  0  0  0  0  0  0  0  0  0
    5.8470    0.1792    0.0000 H   0  0  0  0  0  0  0  0  0  0  0  0
    1.6625   -1.3791    0.0000 H   0  0  0  0  0  0  0  0  0  0  0  0
    1.6625   -2.9991    0.0000 H   0  0  0  0  0  0  0  0  0  0  0  0
    6.7926    1.1051    0.0000 H   0  0  0  0  0  0  0  0  0  0  0  0
    2.6789    0.8584    0.0000 H   0  0  0  0  0  0  0  0  0  0  0  0
    8.0183   -1.4190    0.0000 H   0  0  0  0  0  0  0  0  0  0  0  0
    5.3490    1.7208    0.0000 H   0  0  0  0  0  0  0  0  0  0  0  0
   10.4743   -0.3187    0.0000 H   0  0  0  0  0  0  0  0  0  0  0  0
    2.9530    3.7737    0.0000 H   0  0  0  0  0  0  0  0  0  0  0  0
    2.1725    4.1732    0.0000 H   0  0  0  0  0  0  0  0  0  0  0  0
    1.7731    3.3926    0.0000 H   0  0  0  0  0  0  0  0  0  0  0  0
   10.7612    0.5099    0.0000 H   0  0  0  0  0  0  0  0  0  0  0  0
    9.9327    0.7968    0.0000 H   0  0  0  0  0  0  0  0  0  0  0  0
  1 11  2  0  0  0  0 
  2 25  1  0  0  0  0 
  2 27  1  0  0  0  0 
  3 26  1  0  0  0  0 
  3 28  1  0  0  0  0 
  4 27  2  0  0  0  0 
  5 28  2  0  0  0  0 
  6 11  1  0  0  0  0 
  6 12  1  0  0  0  0 
  6 31  1  0  0  0  0 
  7  8  1  0  0  0  0 
  7  9  1  0  0  0  0 
  7 10  1  0  0  0  0 
  7 11  1  0  0  0  0 
  8 12  1  0  0  0  0 
  8 13  2  0  0  0  0 
  9 16  2  0  0  0  0 
  9 18  1  0  0  0  0 
 10 15  2  0  0  0  0 
 10 17  1  0  0  0  0 
 12 14  2  0  0  0  0 
 13 19  1  0  0  0  0 
 13 32  1  0  0  0  0 
 14 20  1  0  0  0  0 
 14 33  1  0  0  0  0 
 15 21  1  0  0  0  0 
 15 35  1  0  0  0  0 
 16 22  1  0  0  0  0 
 16 34  1  0  0  0  0 
 17 23  2  0  0  0  0 
 17 37  1  0  0  0  0 
 18 24  2  0  0  0  0 
 18 36  1  0  0  0  0 
 19 20  2  0  0  0  0 
 19 38  1  0  0  0  0 
 20 39  1  0  0  0  0 
 21 25  2  0  0  0  0 
 21 41  1  0  0  0  0 
 22 26  2  0  0  0  0 
 22 40  1  0  0  0  0 
 23 25  1  0  0  0  0 
 23 43  1  0  0  0  0 
 24 26  1  0  0  0  0 
 24 42  1  0  0  0  0 
 27 29  1  0  0  0  0 
 28 30  1  0  0  0  0 
 29 45  1  0  0  0  0 
 29 46  1  0  0  0  0 
 29 47  1  0  0  0  0 
 30 44  1  0  0  0  0 
 30 48  1  0  0  0  0 
 30 49  1  0  0  0  0 
M  END
> <cdk:Title>
8269

> <cdk:Remark>
null

> <PUBCHEM_COMPOUND_CID>
8269

> <PUBCHEM_COMPOUND_CANONICALIZED>
1

> <PUBCHEM_CACTVS_COMPLEXITY>
625

> <PUBCHEM_CACTVS_HBOND_ACCEPTOR>
5

> <PUBCHEM_CACTVS_HBOND_DONOR>
1

> <PUBCHEM_CACTVS_ROTATABLE_BOND>
6

> <PUBCHEM_CACTVS_SUBSKEYS>
AAADceB6OAAAAAAAAAAAAAAAAAAAAWAAAAAwYMAAAAAAAFgBUAAAHgAQAAAADgyBmAAyzoLABACIAiXSWACCCAAhIgAIiAEGbIgMJjLEtZuGOijk1BHI6AecyPCPoAAAAAACAABAAAAAAAQAAAAAAAAAAA==

> <PUBCHEM_IUPAC_OPENEYE_NAME>
[4-[3-(4-acetoxyphenyl)-2-oxo-indolin-3-yl]phenyl] acetate

> <PUBCHEM_IUPAC_CAS_NAME>
acetic acid [4-[3-(4-acetyloxyphenyl)-2-oxo-1H-indol-3-yl]phenyl] ester

> <PUBCHEM_IUPAC_NAME>
[4-[3-(4-acetyloxyphenyl)-2-oxo-1H-indol-3-yl]phenyl] acetate

> <PUBCHEM_IUPAC_SYSTEMATIC_NAME>
[4-[3-(4-acetyloxyphenyl)-2-oxidanylidene-1H-indol-3-yl]phenyl] ethanoate

> <PUBCHEM_IUPAC_TRADITIONAL_NAME>
acetic acid [4-[3-(4-acetoxyphenyl)-2-keto-indolin-3-yl]phenyl] ester

> <PUBCHEM_IUPAC_INCHI>
InChI=1S/C24H19NO5/c1-15(26)29-19-11-7-17(8-12-19)24(18-9-13-20(14-10-18)30-16(2)27)21-5-3-4-6-22(21)25-23(24)28/h3-14H,1-2H3,(H,25,28)

> <PUBCHEM_IUPAC_INCHIKEY>
PHPUXYRXPHEJDF-UHFFFAOYSA-N

> <PUBCHEM_XLOGP3_AA>
3.5

> <PUBCHEM_EXACT_MASS>
401.126323

> <PUBCHEM_MOLECULAR_FORMULA>
C24H19NO5

> <PUBCHEM_MOLECULAR_WEIGHT>
401.41136

> <PUBCHEM_OPENEYE_CAN_SMILES>
CC(=O)OC1=CC=C(C=C1)C2(C3=CC=CC=C3NC2=O)C4=CC=C(C=C4)OC(=O)C

> <PUBCHEM_OPENEYE_ISO_SMILES>
CC(=O)OC1=CC=C(C=C1)C2(C3=CC=CC=C3NC2=O)C4=CC=C(C=C4)OC(=O)C

> <PUBCHEM_CACTVS_TPSA>
81.7

> <PUBCHEM_MONOISOTOPIC_WEIGHT>
401.126323

> <PUBCHEM_TOTAL_CHARGE>
0

> <PUBCHEM_HEAVY_ATOM_COUNT>
30

> <PUBCHEM_ATOM_DEF_STEREO_COUNT>
0

> <PUBCHEM_ATOM_UDEF_STEREO_COUNT>
0

> <PUBCHEM_BOND_DEF_STEREO_COUNT>
0

> <PUBCHEM_BOND_UDEF_STEREO_COUNT>
0

> <PUBCHEM_ISOTOPIC_ATOM_COUNT>
0

> <PUBCHEM_COMPONENT_COUNT>
1

> <PUBCHEM_CACTVS_TAUTO_COUNT>
2

> <PUBCHEM_COORDINATE_TYPE>
1
5
255

> <PUBCHEM_BONDANNOTATIONS>
10  15  8
10  17  8
12  14  8
13  19  8
14  20  8
15  21  8
16  22  8
17  23  8
18  24  8
19  20  8
21  25  8
22  26  8
23  25  8
24  26  8
8  12  8
8  13  8
9  16  8
9  18  8

> <DRUG_ID>
w103

> <DRUG_NAME>
Oxyphenisatin acetate

$$$$
216235
  CDK     0927151942
null
 44 47  0  0  0  0  0  0  0  0999 V2000
    4.1756   -2.8173    0.0000 Cl  0  0  0  0  0  0  0  0  0  0  0  0
    5.0558    0.2300    0.0000 S   0  0  0  0  0  0  0  0  0  0  0  0
    6.0727    2.6094    0.0000 S   0  0  0  0  0  0  0  0  0  0  0  0
   10.5875   -0.0804    0.0000 O   0  0  0  0  0  0  0  0  0  0  0  0
   10.5875   -1.6899    0.0000 O   0  0  0  0  0  0  0  0  0  0  0  0
    7.9093    1.6148    0.0000 O   0  0  0  0  0  0  0  0  0  0  0  0
    4.0776    0.4379    0.0000 O   0  0  0  0  0  0  0  0  0  0  0  0
    6.0339    0.0220    0.0000 O   0  0  0  0  0  0  0  0  0  0  0  0
    3.0878   -0.4694    0.0000 O   0  0  0  0  0  0  0  0  0  0  0  0
    4.8479   -0.7482    0.0000 N   0  0  0  0  0  0  0  0  0  0  0  0
    2.2788   -1.0572    0.0000 N   0  0  0  0  0  0  0  0  0  0  0  0
    7.9093   -0.3852    0.0000 C   0  0  0  0  0  0  0  0  0  0  0  0
    7.0432    0.1148    0.0000 C   0  0  0  0  0  0  0  0  0  0  0  0
    7.9093   -1.3852    0.0000 C   0  0  0  0  0  0  0  0  0  0  0  0
    5.2637    1.2081    0.0000 C   0  0  0  0  0  0  0  0  0  0  0  0
    6.1772    1.6148    0.0000 C   0  0  0  0  0  0  0  0  0  0  0  0
    8.7753    0.1148    0.0000 C   0  0  0  0  0  0  0  0  0  0  0  0
    7.0432    1.1148    0.0000 C   0  0  0  0  0  0  0  0  0  0  0  0
    9.6413   -0.3852    0.0000 C   0  0  0  0  0  0  0  0  0  0  0  0
    9.6413   -1.3852    0.0000 C   0  0  0  0  0  0  0  0  0  0  0  0
    8.7753   -1.8852    0.0000 C   0  0  0  0  0  0  0  0  0  0  0  0
    7.0432   -1.8852    0.0000 C   0  0  0  0  0  0  0  0  0  0  0  0
    4.5946    1.9512    0.0000 C   0  0  0  0  0  0  0  0  0  0  0  0
   11.1712   -0.8852    0.0000 C   0  0  0  0  0  0  0  0  0  0  0  0
    5.0946    2.8173    0.0000 C   0  0  0  0  0  0  0  0  0  0  0  0
    3.8968   -1.0572    0.0000 C   0  0  0  0  0  0  0  0  0  0  0  0
    3.5878   -2.0083    0.0000 C   0  0  0  0  0  0  0  0  0  0  0  0
    2.5878   -2.0083    0.0000 C   0  0  0  0  0  0  0  0  0  0  0  0
    2.0000   -2.8173    0.0000 C   0  0  0  0  0  0  0  0  0  0  0  0
    6.4327    0.2225    0.0000 H   0  0  0  0  0  0  0  0  0  0  0  0
    6.8312   -0.4678    0.0000 H   0  0  0  0  0  0  0  0  0  0  0  0
    8.7753    0.7348    0.0000 H   0  0  0  0  0  0  0  0  0  0  0  0
    8.7753   -2.5052    0.0000 H   0  0  0  0  0  0  0  0  0  0  0  0
    6.7332   -1.3482    0.0000 H   0  0  0  0  0  0  0  0  0  0  0  0
    6.5063   -2.1952    0.0000 H   0  0  0  0  0  0  0  0  0  0  0  0
    7.3532   -2.4221    0.0000 H   0  0  0  0  0  0  0  0  0  0  0  0
    3.9780    1.8864    0.0000 H   0  0  0  0  0  0  0  0  0  0  0  0
    5.3086   -1.1630    0.0000 H   0  0  0  0  0  0  0  0  0  0  0  0
   11.6320   -1.2999    0.0000 H   0  0  0  0  0  0  0  0  0  0  0  0
   11.6320   -0.4704    0.0000 H   0  0  0  0  0  0  0  0  0  0  0  0
    4.8424    3.3837    0.0000 H   0  0  0  0  0  0  0  0  0  0  0  0
    1.4984   -2.4529    0.0000 H   0  0  0  0  0  0  0  0  0  0  0  0
    1.6356   -3.3189    0.0000 H   0  0  0  0  0  0  0  0  0  0  0  0
    2.5016   -3.1817    0.0000 H   0  0  0  0  0  0  0  0  0  0  0  0
  1 27  1  0  0  0  0 
  2  7  2  0  0  0  0 
  2  8  2  0  0  0  0 
  2 10  1  0  0  0  0 
  2 15  1  0  0  0  0 
  3 16  1  0  0  0  0 
  3 25  1  0  0  0  0 
  4 19  1  0  0  0  0 
  4 24  1  0  0  0  0 
  5 20  1  0  0  0  0 
  5 24  1  0  0  0  0 
  6 18  2  0  0  0  0 
  9 11  1  0  0  0  0 
  9 26  1  0  0  0  0 
 10 26  1  0  0  0  0 
 10 38  1  0  0  0  0 
 11 28  2  0  0  0  0 
 12 13  1  0  0  0  0 
 12 14  1  0  0  0  0 
 12 17  2  0  0  0  0 
 13 18  1  0  0  0  0 
 13 30  1  0  0  0  0 
 13 31  1  0  0  0  0 
 14 21  2  0  0  0  0 
 14 22  1  0  0  0  0 
 15 16  2  0  0  0  0 
 15 23  1  0  0  0  0 
 16 18  1  0  0  0  0 
 17 19  1  0  0  0  0 
 17 32  1  0  0  0  0 
 19 20  2  0  0  0  0 
 20 21  1  0  0  0  0 
 21 33  1  0  0  0  0 
 22 34  1  0  0  0  0 
 22 35  1  0  0  0  0 
 22 36  1  0  0  0  0 
 23 25  2  0  0  0  0 
 23 37  1  0  0  0  0 
 24 39  1  0  0  0  0 
 24 40  1  0  0  0  0 
 25 41  1  0  0  0  0 
 26 27  2  0  0  0  0 
 27 28  1  0  0  0  0 
 28 29  1  0  0  0  0 
 29 42  1  0  0  0  0 
 29 43  1  0  0  0  0 
 29 44  1  0  0  0  0 
M  END
> <cdk:Title>
216235

> <cdk:Remark>
null

> <PUBCHEM_COMPOUND_CID>
216235

> <PUBCHEM_COMPOUND_CANONICALIZED>
1

> <PUBCHEM_CACTVS_COMPLEXITY>
720

> <PUBCHEM_CACTVS_HBOND_ACCEPTOR>
9

> <PUBCHEM_CACTVS_HBOND_DONOR>
1

> <PUBCHEM_CACTVS_ROTATABLE_BOND>
6

> <PUBCHEM_CACTVS_SUBSKEYS>
AAADccB7OABkAAAAAAAAAAAAAAAAAWJEgAAwAAAAAAAAAEgB8AAAHgYUQAAADA6F3iOyj5BQBAqtA6VyUnDDCJAkLFBomDk2z9tdJjqk9dqgNaJmwBku6UeIzPDOoAABAAAQQABAAAIAACCAAAAAAAAAAA==

> <PUBCHEM_IUPAC_OPENEYE_NAME>
N-(4-chloro-3-methyl-isoxazol-5-yl)-2-[2-(6-methyl-1,3-benzodioxol-5-yl)acetyl]thiophene-3-sulfonamide

> <PUBCHEM_IUPAC_CAS_NAME>
N-(4-chloro-3-methyl-5-isoxazolyl)-2-[2-(6-methyl-1,3-benzodioxol-5-yl)-1-oxoethyl]-3-thiophenesulfonamide

> <PUBCHEM_IUPAC_NAME>
N-(4-chloro-3-methyl-1,2-oxazol-5-yl)-2-[2-(6-methyl-1,3-benzodioxol-5-yl)acetyl]thiophene-3-sulfonamide

> <PUBCHEM_IUPAC_SYSTEMATIC_NAME>
N-(4-chloranyl-3-methyl-1,2-oxazol-5-yl)-2-[2-(6-methyl-1,3-benzodioxol-5-yl)ethanoyl]thiophene-3-sulfonamide

> <PUBCHEM_IUPAC_TRADITIONAL_NAME>
N-(4-chloro-3-methyl-isoxazol-5-yl)-2-[2-(6-methyl-1,3-benzodioxol-5-yl)acetyl]thiophene-3-sulfonamide

> <PUBCHEM_IUPAC_INCHI>
InChI=1S/C18H15ClN2O6S2/c1-9-5-13-14(26-8-25-13)7-11(9)6-12(22)17-15(3-4-28-17)29(23,24)21-18-16(19)10(2)20-27-18/h3-5,7,21H,6,8H2,1-2H3

> <PUBCHEM_IUPAC_INCHIKEY>
PHWXUGHIIBDVKD-UHFFFAOYSA-N

> <PUBCHEM_XLOGP3_AA>
3.7

> <PUBCHEM_EXACT_MASS>
454.006006

> <PUBCHEM_MOLECULAR_FORMULA>
C18H15ClN2O6S2

> <PUBCHEM_MOLECULAR_WEIGHT>
454.9045

> <PUBCHEM_OPENEYE_CAN_SMILES>
CC1=CC2=C(C=C1CC(=O)C3=C(C=CS3)S(=O)(=O)NC4=C(C(=NO4)C)Cl)OCO2

> <PUBCHEM_OPENEYE_ISO_SMILES>
CC1=CC2=C(C=C1CC(=O)C3=C(C=CS3)S(=O)(=O)NC4=C(C(=NO4)C)Cl)OCO2

> <PUBCHEM_CACTVS_TPSA>
144

> <PUBCHEM_MONOISOTOPIC_WEIGHT>
454.006006

> <PUBCHEM_TOTAL_CHARGE>
0

> <PUBCHEM_HEAVY_ATOM_COUNT>
29

> <PUBCHEM_ATOM_DEF_STEREO_COUNT>
0

> <PUBCHEM_ATOM_UDEF_STEREO_COUNT>
0

> <PUBCHEM_BOND_DEF_STEREO_COUNT>
0

> <PUBCHEM_BOND_UDEF_STEREO_COUNT>
0

> <PUBCHEM_ISOTOPIC_ATOM_COUNT>
0

> <PUBCHEM_COMPONENT_COUNT>
1

> <PUBCHEM_CACTVS_TAUTO_COUNT>
45

> <PUBCHEM_COORDINATE_TYPE>
1
5
255

> <PUBCHEM_BONDANNOTATIONS>
11  28  8
12  14  8
12  17  8
14  21  8
15  16  8
15  23  8
17  19  8
19  20  8
20  21  8
23  25  8
26  27  8
27  28  8
3  16  8
3  25  8
9  11  8
9  26  8

> <DRUG_ID>
w104

> <DRUG_NAME>
Sitaxentan

$$$$
35935
  CDK     0927151942
null
 31 32  0  0  0  0  0  0  0  0999 V2000
    2.0000    1.1356    0.0000 Cl  0  0  0  0  0  0  0  0  0  0  0  0
    4.5981   -3.3644    0.0000 O   0  0  0  0  0  0  0  0  0  0  0  0
    5.4641   -1.8644    0.0000 O   0  0  0  0  0  0  0  0  0  0  0  0
    3.7320    2.1356    0.0000 N   0  0  0  0  0  0  0  0  0  0  0  0
    4.5411    2.7234    0.0000 C   0  0  0  0  0  0  0  0  0  0  0  0
    2.9230    2.7234    0.0000 C   0  0  0  0  0  0  0  0  0  0  0  0
    3.7320    1.1356    0.0000 C   0  0  0  0  0  0  0  0  0  0  0  0
    3.7320   -0.8644    0.0000 C   0  0  0  0  0  0  0  0  0  0  0  0
    3.7320   -1.8644    0.0000 C   0  0  3  0  0  0  0  0  0  0  0  0
    4.2320    3.6744    0.0000 C   0  0  0  0  0  0  0  0  0  0  0  0
    3.2320    3.6744    0.0000 C   0  0  0  0  0  0  0  0  0  0  0  0
    2.8660    0.6356    0.0000 C   0  0  0  0  0  0  0  0  0  0  0  0
    4.5981    0.6356    0.0000 C   0  0  0  0  0  0  0  0  0  0  0  0
    2.8660   -0.3644    0.0000 C   0  0  0  0  0  0  0  0  0  0  0  0
    4.5981   -0.3644    0.0000 C   0  0  0  0  0  0  0  0  0  0  0  0
    2.8660   -2.3644    0.0000 C   0  0  0  0  0  0  0  0  0  0  0  0
    4.5981   -2.3644    0.0000 C   0  0  0  0  0  0  0  0  0  0  0  0
    4.8511    2.1864    0.0000 H   0  0  0  0  0  0  0  0  0  0  0  0
    5.1075    2.9755    0.0000 H   0  0  0  0  0  0  0  0  0  0  0  0
    2.3566    2.9755    0.0000 H   0  0  0  0  0  0  0  0  0  0  0  0
    2.6130    2.1864    0.0000 H   0  0  0  0  0  0  0  0  0  0  0  0
    3.7320   -2.7144    0.0000 H   0  0  0  0  0  0  0  0  0  0  0  0
    4.5965    4.1760    0.0000 H   0  0  0  0  0  0  0  0  0  0  0  0
    2.8676    4.1760    0.0000 H   0  0  0  0  0  0  0  0  0  0  0  0
    5.1350    0.9456    0.0000 H   0  0  0  0  0  0  0  0  0  0  0  0
    2.3291   -0.6744    0.0000 H   0  0  0  0  0  0  0  0  0  0  0  0
    5.1350   -0.6744    0.0000 H   0  0  0  0  0  0  0  0  0  0  0  0
    2.5560   -1.8275    0.0000 H   0  0  0  0  0  0  0  0  0  0  0  0
    2.3291   -2.6744    0.0000 H   0  0  0  0  0  0  0  0  0  0  0  0
    3.1760   -2.9014    0.0000 H   0  0  0  0  0  0  0  0  0  0  0  0
    5.1350   -3.6744    0.0000 H   0  0  0  0  0  0  0  0  0  0  0  0
  1 12  1  0  0  0  0 
  2 17  1  0  0  0  0 
  2 31  1  0  0  0  0 
  3 17  2  0  0  0  0 
  4  5  1  0  0  0  0 
  4  6  1  0  0  0  0 
  4  7  1  0  0  0  0 
  5 10  1  0  0  0  0 
  5 18  1  0  0  0  0 
  5 19  1  0  0  0  0 
  6 11  1  0  0  0  0 
  6 20  1  0  0  0  0 
  6 21  1  0  0  0  0 
  7 12  2  0  0  0  0 
  7 13  1  0  0  0  0 
  8  9  1  0  0  0  0 
  8 14  2  0  0  0  0 
  8 15  1  0  0  0  0 
  9 16  1  0  0  0  0 
  9 17  1  0  0  0  0 
  9 22  1  0  0  0  0 
 10 11  2  0  0  0  0 
 10 23  1  0  0  0  0 
 11 24  1  0  0  0  0 
 12 14  1  0  0  0  0 
 13 15  2  0  0  0  0 
 13 25  1  0  0  0  0 
 14 26  1  0  0  0  0 
 15 27  1  0  0  0  0 
 16 28  1  0  0  0  0 
 16 29  1  0  0  0  0 
 16 30  1  0  0  0  0 
M  END
> <cdk:Title>
35935

> <cdk:Remark>
null

> <PUBCHEM_COMPOUND_CID>
35935

> <PUBCHEM_COMPOUND_CANONICALIZED>
1

> <PUBCHEM_CACTVS_COMPLEXITY>
311

> <PUBCHEM_CACTVS_HBOND_ACCEPTOR>
3

> <PUBCHEM_CACTVS_HBOND_DONOR>
1

> <PUBCHEM_CACTVS_ROTATABLE_BOND>
3

> <PUBCHEM_CACTVS_SUBSKEYS>
AAADccByMAAEAAAAAAAAAAAAAAAAAQAAAAAwAAAAAAAAAAABAAAAHgIACAAADQrBmCQyyIMAAgCIAiTSSACCAAAhBwAIiAEIZogIIDLBl5HEYAhkwAHIyAeYyOCOiAAAIAAAABAQAABAAAAAIAAAAAAAAA==

> <PUBCHEM_IUPAC_OPENEYE_NAME>
2-[3-chloro-4-(2,5-dihydropyrrol-1-yl)phenyl]propanoic acid

> <PUBCHEM_IUPAC_CAS_NAME>
2-[3-chloro-4-(2,5-dihydropyrrol-1-yl)phenyl]propanoic acid

> <PUBCHEM_IUPAC_NAME>
2-[3-chloro-4-(2,5-dihydropyrrol-1-yl)phenyl]propanoic acid

> <PUBCHEM_IUPAC_SYSTEMATIC_NAME>
2-[3-chloranyl-4-(2,5-dihydropyrrol-1-yl)phenyl]propanoic acid

> <PUBCHEM_IUPAC_TRADITIONAL_NAME>
2-[3-chloro-4-(3-pyrrolin-1-yl)phenyl]propionic acid

> <PUBCHEM_IUPAC_INCHI>
InChI=1S/C13H14ClNO2/c1-9(13(16)17)10-4-5-12(11(14)8-10)15-6-2-3-7-15/h2-5,8-9H,6-7H2,1H3,(H,16,17)

> <PUBCHEM_IUPAC_INCHIKEY>
PIDSZXPFGCURGN-UHFFFAOYSA-N

> <PUBCHEM_XLOGP3_AA>
2.9

> <PUBCHEM_EXACT_MASS>
251.071306

> <PUBCHEM_MOLECULAR_FORMULA>
C13H14ClNO2

> <PUBCHEM_MOLECULAR_WEIGHT>
251.70876

> <PUBCHEM_OPENEYE_CAN_SMILES>
CC(C1=CC(=C(C=C1)N2CC=CC2)Cl)C(=O)O

> <PUBCHEM_OPENEYE_ISO_SMILES>
CC(C1=CC(=C(C=C1)N2CC=CC2)Cl)C(=O)O

> <PUBCHEM_CACTVS_TPSA>
40.5

> <PUBCHEM_MONOISOTOPIC_WEIGHT>
251.071306

> <PUBCHEM_TOTAL_CHARGE>
0

> <PUBCHEM_HEAVY_ATOM_COUNT>
17

> <PUBCHEM_ATOM_DEF_STEREO_COUNT>
0

> <PUBCHEM_ATOM_UDEF_STEREO_COUNT>
1

> <PUBCHEM_BOND_DEF_STEREO_COUNT>
0

> <PUBCHEM_BOND_UDEF_STEREO_COUNT>
0

> <PUBCHEM_ISOTOPIC_ATOM_COUNT>
0

> <PUBCHEM_COMPONENT_COUNT>
1

> <PUBCHEM_CACTVS_TAUTO_COUNT>
1

> <PUBCHEM_COORDINATE_TYPE>
1
5
255

> <PUBCHEM_BONDANNOTATIONS>
12  14  8
13  15  8
7  12  8
7  13  8
8  14  8
8  15  8
9  22  3

> <DRUG_ID>
w105

> <DRUG_NAME>
Pirprofen

$$$$
48041
  CDK     0927151942
null
 54 56  0  0  0  0  0  0  0  0999 V2000
    8.9282   -1.0000    0.0000 O   0  0  0  0  0  0  0  0  0  0  0  0
    8.0622    3.5000    0.0000 O   0  0  0  0  0  0  0  0  0  0  0  0
    2.8660   -2.5000    0.0000 N   0  0  3  0  0  0  0  0  0  0  0  0
    7.1962   -1.0000    0.0000 N   0  0  0  0  0  0  0  0  0  0  0  0
    3.7320   -2.0000    0.0000 C   0  0  3  0  0  0  0  0  0  0  0  0
    3.7320   -1.0000    0.0000 C   0  0  0  0  0  0  0  0  0  0  0  0
    2.8660   -0.5000    0.0000 C   0  0  0  0  0  0  0  0  0  0  0  0
    2.0000   -2.0000    0.0000 C   0  0  0  0  0  0  0  0  0  0  0  0
    2.0000   -1.0000    0.0000 C   0  0  0  0  0  0  0  0  0  0  0  0
    4.5981   -2.5000    0.0000 C   0  0  0  0  0  0  0  0  0  0  0  0
    5.4641   -2.0000    0.0000 C   0  0  0  0  0  0  0  0  0  0  0  0
    2.8660   -3.5000    0.0000 C   0  0  0  0  0  0  0  0  0  0  0  0
    6.3301   -2.5000    0.0000 C   0  0  0  0  0  0  0  0  0  0  0  0
    7.1962   -2.0000    0.0000 C   0  0  0  0  0  0  0  0  0  0  0  0
    6.3301   -3.5000    0.0000 C   0  0  0  0  0  0  0  0  0  0  0  0
    8.0622   -2.5000    0.0000 C   0  0  0  0  0  0  0  0  0  0  0  0
    7.1962   -4.0000    0.0000 C   0  0  0  0  0  0  0  0  0  0  0  0
    8.0622   -3.5000    0.0000 C   0  0  0  0  0  0  0  0  0  0  0  0
    8.0622   -0.5000    0.0000 C   0  0  0  0  0  0  0  0  0  0  0  0
    8.0622    0.5000    0.0000 C   0  0  0  0  0  0  0  0  0  0  0  0
    8.9282    1.0000    0.0000 C   0  0  0  0  0  0  0  0  0  0  0  0
    7.1962    1.0000    0.0000 C   0  0  0  0  0  0  0  0  0  0  0  0
    8.9282    2.0000    0.0000 C   0  0  0  0  0  0  0  0  0  0  0  0
    7.1962    2.0000    0.0000 C   0  0  0  0  0  0  0  0  0  0  0  0
    8.0622    2.5000    0.0000 C   0  0  0  0  0  0  0  0  0  0  0  0
    8.9282    4.0000    0.0000 C   0  0  0  0  0  0  0  0  0  0  0  0
    3.7320   -2.6200    0.0000 H   0  0  0  0  0  0  0  0  0  0  0  0
    4.3426   -1.1077    0.0000 H   0  0  0  0  0  0  0  0  0  0  0  0
    3.9441   -0.4174    0.0000 H   0  0  0  0  0  0  0  0  0  0  0  0
    3.2646   -0.0251    0.0000 H   0  0  0  0  0  0  0  0  0  0  0  0
    2.4675   -0.0251    0.0000 H   0  0  0  0  0  0  0  0  0  0  0  0
    1.3894   -1.8923    0.0000 H   0  0  0  0  0  0  0  0  0  0  0  0
    1.7880   -2.5826    0.0000 H   0  0  0  0  0  0  0  0  0  0  0  0
    4.1996   -2.9750    0.0000 H   0  0  0  0  0  0  0  0  0  0  0  0
    4.9966   -2.9750    0.0000 H   0  0  0  0  0  0  0  0  0  0  0  0
    1.7880   -0.4174    0.0000 H   0  0  0  0  0  0  0  0  0  0  0  0
    1.3894   -1.1077    0.0000 H   0  0  0  0  0  0  0  0  0  0  0  0
    5.8626   -1.5250    0.0000 H   0  0  0  0  0  0  0  0  0  0  0  0
    5.0656   -1.5250    0.0000 H   0  0  0  0  0  0  0  0  0  0  0  0
    2.2460   -3.5000    0.0000 H   0  0  0  0  0  0  0  0  0  0  0  0
    2.8660   -4.1200    0.0000 H   0  0  0  0  0  0  0  0  0  0  0  0
    3.4860   -3.5000    0.0000 H   0  0  0  0  0  0  0  0  0  0  0  0
    5.7932   -3.8100    0.0000 H   0  0  0  0  0  0  0  0  0  0  0  0
    8.5991   -2.1900    0.0000 H   0  0  0  0  0  0  0  0  0  0  0  0
    7.1962   -4.6200    0.0000 H   0  0  0  0  0  0  0  0  0  0  0  0
    6.6592   -0.6900    0.0000 H   0  0  0  0  0  0  0  0  0  0  0  0
    8.5991   -3.8100    0.0000 H   0  0  0  0  0  0  0  0  0  0  0  0
    9.4651    0.6900    0.0000 H   0  0  0  0  0  0  0  0  0  0  0  0
    6.6592    0.6900    0.0000 H   0  0  0  0  0  0  0  0  0  0  0  0
    9.4651    2.3100    0.0000 H   0  0  0  0  0  0  0  0  0  0  0  0
    6.6592    2.3100    0.0000 H   0  0  0  0  0  0  0  0  0  0  0  0
    9.2382    3.4631    0.0000 H   0  0  0  0  0  0  0  0  0  0  0  0
    9.4651    4.3100    0.0000 H   0  0  0  0  0  0  0  0  0  0  0  0
    8.6182    4.5369    0.0000 H   0  0  0  0  0  0  0  0  0  0  0  0
  1 19  2  0  0  0  0 
  2 25  1  0  0  0  0 
  2 26  1  0  0  0  0 
  3  5  1  0  0  0  0 
  3  8  1  0  0  0  0 
  3 12  1  0  0  0  0 
  4 14  1  0  0  0  0 
  4 19  1  0  0  0  0 
  4 46  1  0  0  0  0 
  5  6  1  0  0  0  0 
  5 10  1  0  0  0  0 
  5 27  1  0  0  0  0 
  6  7  1  0  0  0  0 
  6 28  1  0  0  0  0 
  6 29  1  0  0  0  0 
  7  9  1  0  0  0  0 
  7 30  1  0  0  0  0 
  7 31  1  0  0  0  0 
  8  9  1  0  0  0  0 
  8 32  1  0  0  0  0 
  8 33  1  0  0  0  0 
  9 36  1  0  0  0  0 
  9 37  1  0  0  0  0 
 10 11  1  0  0  0  0 
 10 34  1  0  0  0  0 
 10 35  1  0  0  0  0 
 11 13  1  0  0  0  0 
 11 38  1  0  0  0  0 
 11 39  1  0  0  0  0 
 12 40  1  0  0  0  0 
 12 41  1  0  0  0  0 
 12 42  1  0  0  0  0 
 13 14  1  0  0  0  0 
 13 15  2  0  0  0  0 
 14 16  2  0  0  0  0 
 15 17  1  0  0  0  0 
 15 43  1  0  0  0  0 
 16 18  1  0  0  0  0 
 16 44  1  0  0  0  0 
 17 18  2  0  0  0  0 
 17 45  1  0  0  0  0 
 18 47  1  0  0  0  0 
 19 20  1  0  0  0  0 
 20 21  2  0  0  0  0 
 20 22  1  0  0  0  0 
 21 23  1  0  0  0  0 
 21 48  1  0  0  0  0 
 22 24  2  0  0  0  0 
 22 49  1  0  0  0  0 
 23 25  2  0  0  0  0 
 23 50  1  0  0  0  0 
 24 25  1  0  0  0  0 
 24 51  1  0  0  0  0 
 26 52  1  0  0  0  0 
 26 53  1  0  0  0  0 
 26 54  1  0  0  0  0 
M  END
> <cdk:Title>
48041

> <cdk:Remark>
null

> <PUBCHEM_COMPOUND_CID>
48041

> <PUBCHEM_COMPOUND_CANONICALIZED>
1

> <PUBCHEM_CACTVS_COMPLEXITY>
434

> <PUBCHEM_CACTVS_HBOND_ACCEPTOR>
3

> <PUBCHEM_CACTVS_HBOND_DONOR>
1

> <PUBCHEM_CACTVS_ROTATABLE_BOND>
6

> <PUBCHEM_CACTVS_SUBSKEYS>
AAADceB7MAAAAAAAAAAAAAAAAAAAAAAAAAA8YIAAAAAAAAABQAAAHgAQAAAADCzBmAYyxoPABACIAiVSUACCCAAlIgAIiAEObMgMJjLEtZuEMShk1BHI6YeY3MLOIAAAAAACAABAAAAAAAQAAAAAAAAAAA==

> <PUBCHEM_IUPAC_OPENEYE_NAME>
4-methoxy-N-[2-[2-(1-methyl-2-piperidyl)ethyl]phenyl]benzamide

> <PUBCHEM_IUPAC_CAS_NAME>
4-methoxy-N-[2-[2-(1-methyl-2-piperidinyl)ethyl]phenyl]benzamide

> <PUBCHEM_IUPAC_NAME>
4-methoxy-N-[2-[2-(1-methylpiperidin-2-yl)ethyl]phenyl]benzamide

> <PUBCHEM_IUPAC_SYSTEMATIC_NAME>
4-methoxy-N-[2-[2-(1-methylpiperidin-2-yl)ethyl]phenyl]benzamide

> <PUBCHEM_IUPAC_TRADITIONAL_NAME>
4-methoxy-N-[2-[2-(1-methyl-2-piperidyl)ethyl]phenyl]benzamide

> <PUBCHEM_IUPAC_INCHI>
InChI=1S/C22H28N2O2/c1-24-16-6-5-8-19(24)13-10-17-7-3-4-9-21(17)23-22(25)18-11-14-20(26-2)15-12-18/h3-4,7,9,11-12,14-15,19H,5-6,8,10,13,16H2,1-2H3,(H,23,25)

> <PUBCHEM_IUPAC_INCHIKEY>
PJWPNDMDCLXCOM-UHFFFAOYSA-N

> <PUBCHEM_XLOGP3_AA>
4.3

> <PUBCHEM_EXACT_MASS>
352.215078

> <PUBCHEM_MOLECULAR_FORMULA>
C22H28N2O2

> <PUBCHEM_MOLECULAR_WEIGHT>
352.46992

> <PUBCHEM_OPENEYE_CAN_SMILES>
CN1CCCCC1CCC2=CC=CC=C2NC(=O)C3=CC=C(C=C3)OC

> <PUBCHEM_OPENEYE_ISO_SMILES>
CN1CCCCC1CCC2=CC=CC=C2NC(=O)C3=CC=C(C=C3)OC

> <PUBCHEM_CACTVS_TPSA>
41.6

> <PUBCHEM_MONOISOTOPIC_WEIGHT>
352.215078

> <PUBCHEM_TOTAL_CHARGE>
0

> <PUBCHEM_HEAVY_ATOM_COUNT>
26

> <PUBCHEM_ATOM_DEF_STEREO_COUNT>
0

> <PUBCHEM_ATOM_UDEF_STEREO_COUNT>
1

> <PUBCHEM_BOND_DEF_STEREO_COUNT>
0

> <PUBCHEM_BOND_UDEF_STEREO_COUNT>
0

> <PUBCHEM_ISOTOPIC_ATOM_COUNT>
0

> <PUBCHEM_COMPONENT_COUNT>
1

> <PUBCHEM_CACTVS_TAUTO_COUNT>
2

> <PUBCHEM_COORDINATE_TYPE>
1
5
255

> <PUBCHEM_BONDANNOTATIONS>
13  14  8
13  15  8
14  16  8
15  17  8
16  18  8
17  18  8
20  21  8
20  22  8
21  23  8
22  24  8
23  25  8
24  25  8
5  10  3

> <DRUG_ID>
w106

> <DRUG_NAME>
Encainide

$$$$
5323714
  CDK     0927151942
null
 23 24  0  0  0  0  0  0  0  0999 V2000
    9.5755   -0.1248    0.0000 O   0  0  0  0  0  0  0  0  0  0  0  0
    4.5032   -0.7636    0.0000 O   0  0  0  0  0  0  0  0  0  0  0  0
    8.7665    1.4630    0.0000 O   0  0  0  0  0  0  0  0  0  0  0  0
    2.0000    0.1843    0.0000 O   0  0  0  0  0  0  0  0  0  0  0  0
    2.5352   -1.4630    0.0000 O   0  0  0  0  0  0  0  0  0  0  0  0
    7.9575   -0.1248    0.0000 N   0  0  0  0  0  0  0  0  0  0  0  0
    7.0064    0.1843    0.0000 N   0  0  0  0  0  0  0  0  0  0  0  0
    2.7431   -0.4849    0.0000 N   0  0  0  0  0  0  0  0  0  0  0  0
    8.2665   -1.0758    0.0000 C   0  0  0  0  0  0  0  0  0  0  0  0
    9.2665   -1.0758    0.0000 C   0  0  0  0  0  0  0  0  0  0  0  0
    8.7665    0.4630    0.0000 C   0  0  0  0  0  0  0  0  0  0  0  0
    5.3122   -0.1759    0.0000 C   0  0  0  0  0  0  0  0  0  0  0  0
    6.2633   -0.4849    0.0000 C   0  0  0  0  0  0  0  0  0  0  0  0
    5.0032    0.7752    0.0000 C   0  0  0  0  0  0  0  0  0  0  0  0
    3.6942   -0.1759    0.0000 C   0  0  0  0  0  0  0  0  0  0  0  0
    4.0032    0.7752    0.0000 C   0  0  0  0  0  0  0  0  0  0  0  0
    7.6601   -1.2047    0.0000 H   0  0  0  0  0  0  0  0  0  0  0  0
    8.3313   -1.6924    0.0000 H   0  0  0  0  0  0  0  0  0  0  0  0
    9.2017   -1.6924    0.0000 H   0  0  0  0  0  0  0  0  0  0  0  0
    9.8730   -1.2047    0.0000 H   0  0  0  0  0  0  0  0  0  0  0  0
    6.3922   -1.0913    0.0000 H   0  0  0  0  0  0  0  0  0  0  0  0
    5.3676    1.2768    0.0000 H   0  0  0  0  0  0  0  0  0  0  0  0
    3.6388    1.2768    0.0000 H   0  0  0  0  0  0  0  0  0  0  0  0
  1 10  1  0  0  0  0 
  1 11  1  0  0  0  0 
  2 12  1  0  0  0  0 
  2 15  1  0  0  0  0 
  3 11  2  0  0  0  0 
  4  8  1  0  0  0  0 
  5  8  2  0  0  0  0 
  6  7  1  0  0  0  0 
  6  9  1  0  0  0  0 
  6 11  1  0  0  0  0 
  7 13  2  0  0  0  0 
  8 15  1  0  0  0  0 
  9 10  1  0  0  0  0 
  9 17  1  0  0  0  0 
  9 18  1  0  0  0  0 
 10 19  1  0  0  0  0 
 10 20  1  0  0  0  0 
 12 13  1  0  0  0  0 
 12 14  2  0  0  0  0 
 13 21  1  0  0  0  0 
 14 16  1  0  0  0  0 
 14 22  1  0  0  0  0 
 15 16  2  0  0  0  0 
 16 23  1  0  0  0  0 
M  CHG  1   4  -1
M  CHG  1   8   1
M  END
> <cdk:Title>
5323714

> <cdk:Remark>
null

> <PUBCHEM_COMPOUND_CID>
5323714

> <PUBCHEM_COMPOUND_CANONICALIZED>
1

> <PUBCHEM_CACTVS_COMPLEXITY>
326

> <PUBCHEM_CACTVS_HBOND_ACCEPTOR>
6

> <PUBCHEM_CACTVS_HBOND_DONOR>
0

> <PUBCHEM_CACTVS_ROTATABLE_BOND>
2

> <PUBCHEM_CACTVS_SUBSKEYS>
AAADcYBzOAAAAAAAAAAAAAAAAAAAAWJAAAAAAAAAAAAAAAABgAAAHgAMAAAACAThkAYwjIIQRECpALFzWwSSCAAsIgA6iAEubNoOJrKEtZuLGSDkzhEY6Ya8AAAAAAAAAAAAAAAAAAAAAAAAAAAAAAAAAA==

> <PUBCHEM_IUPAC_OPENEYE_NAME>
3-[(E)-(5-nitro-2-furyl)methyleneamino]oxazolidin-2-one

> <PUBCHEM_IUPAC_CAS_NAME>
3-[(E)-(5-nitro-2-furanyl)methylideneamino]-2-oxazolidinone

> <PUBCHEM_IUPAC_NAME>
3-[(E)-(5-nitrofuran-2-yl)methylideneamino]-1,3-oxazolidin-2-one

> <PUBCHEM_IUPAC_SYSTEMATIC_NAME>
3-[(E)-(5-nitrofuran-2-yl)methylideneamino]-1,3-oxazolidin-2-one

> <PUBCHEM_IUPAC_TRADITIONAL_NAME>
3-[(E)-(5-nitro-2-furyl)methyleneamino]oxazolidin-2-one

> <PUBCHEM_IUPAC_INCHI>
InChI=1S/C8H7N3O5/c12-8-10(3-4-15-8)9-5-6-1-2-7(16-6)11(13)14/h1-2,5H,3-4H2/b9-5+

> <PUBCHEM_IUPAC_INCHIKEY>
PLHJDBGFXBMTGZ-WEVVVXLNSA-N

> <PUBCHEM_XLOGP3>
-0.1

> <PUBCHEM_EXACT_MASS>
225.03857

> <PUBCHEM_MOLECULAR_FORMULA>
C8H7N3O5

> <PUBCHEM_MOLECULAR_WEIGHT>
225.15828

> <PUBCHEM_OPENEYE_CAN_SMILES>
C1COC(=O)N1N=CC2=CC=C(O2)[N+](=O)[O-]

> <PUBCHEM_OPENEYE_ISO_SMILES>
C1COC(=O)N1/N=C/C2=CC=C(O2)[N+](=O)[O-]

> <PUBCHEM_CACTVS_TPSA>
101

> <PUBCHEM_MONOISOTOPIC_WEIGHT>
225.03857

> <PUBCHEM_TOTAL_CHARGE>
0

> <PUBCHEM_HEAVY_ATOM_COUNT>
16

> <PUBCHEM_ATOM_DEF_STEREO_COUNT>
0

> <PUBCHEM_ATOM_UDEF_STEREO_COUNT>
0

> <PUBCHEM_BOND_DEF_STEREO_COUNT>
1

> <PUBCHEM_BOND_UDEF_STEREO_COUNT>
0

> <PUBCHEM_ISOTOPIC_ATOM_COUNT>
0

> <PUBCHEM_COMPONENT_COUNT>
1

> <PUBCHEM_CACTVS_TAUTO_COUNT>
1

> <PUBCHEM_COORDINATE_TYPE>
1
5
255

> <PUBCHEM_BONDANNOTATIONS>
12  14  8
14  16  8
15  16  8
2  12  8
2  15  8

> <DRUG_ID>
w107

> <DRUG_NAME>
Furazolidone

$$$$
2950
  CDK     0927151942
null
 26 28  0  0  0  0  0  0  0  0999 V2000
    4.6660    1.8246    0.0000 O   0  0  0  0  0  0  0  0  0  0  0  0
    4.6660   -2.1754    0.0000 O   0  0  0  0  0  0  0  0  0  0  0  0
    6.4144    1.8592    0.0000 O   0  0  0  0  0  0  0  0  0  0  0  0
    2.9176    1.8592    0.0000 O   0  0  0  0  0  0  0  0  0  0  0  0
    5.5321    0.3246    0.0000 C   0  0  0  0  0  0  0  0  0  0  0  0
    3.8000    0.3246    0.0000 C   0  0  0  0  0  0  0  0  0  0  0  0
    5.5321   -0.6754    0.0000 C   0  0  0  0  0  0  0  0  0  0  0  0
    3.8000   -0.6754    0.0000 C   0  0  0  0  0  0  0  0  0  0  0  0
    4.6660    0.8246    0.0000 C   0  0  0  0  0  0  0  0  0  0  0  0
    4.6660   -1.1754    0.0000 C   0  0  0  0  0  0  0  0  0  0  0  0
    6.4260    0.8593    0.0000 C   0  0  0  0  0  0  0  0  0  0  0  0
    2.9061    0.8593    0.0000 C   0  0  0  0  0  0  0  0  0  0  0  0
    6.4260   -1.2100    0.0000 C   0  0  0  0  0  0  0  0  0  0  0  0
    2.9061   -1.2100    0.0000 C   0  0  0  0  0  0  0  0  0  0  0  0
    7.3321    0.3454    0.0000 C   0  0  0  0  0  0  0  0  0  0  0  0
    2.0000    0.3454    0.0000 C   0  0  0  0  0  0  0  0  0  0  0  0
    7.3321   -0.6962    0.0000 C   0  0  0  0  0  0  0  0  0  0  0  0
    2.0000   -0.6962    0.0000 C   0  0  0  0  0  0  0  0  0  0  0  0
    6.4188   -1.8300    0.0000 H   0  0  0  0  0  0  0  0  0  0  0  0
    2.9132   -1.8300    0.0000 H   0  0  0  0  0  0  0  0  0  0  0  0
    7.8678    0.6575    0.0000 H   0  0  0  0  0  0  0  0  0  0  0  0
    1.4643    0.6575    0.0000 H   0  0  0  0  0  0  0  0  0  0  0  0
    7.8678   -1.0083    0.0000 H   0  0  0  0  0  0  0  0  0  0  0  0
    1.4643   -1.0083    0.0000 H   0  0  0  0  0  0  0  0  0  0  0  0
    6.9478    2.1754    0.0000 H   0  0  0  0  0  0  0  0  0  0  0  0
    2.3843    2.1754    0.0000 H   0  0  0  0  0  0  0  0  0  0  0  0
  1  9  2  0  0  0  0 
  2 10  2  0  0  0  0 
  3 11  1  0  0  0  0 
  3 25  1  0  0  0  0 
  4 12  1  0  0  0  0 
  4 26  1  0  0  0  0 
  5  7  2  0  0  0  0 
  5  9  1  0  0  0  0 
  5 11  1  0  0  0  0 
  6  8  2  0  0  0  0 
  6  9  1  0  0  0  0 
  6 12  1  0  0  0  0 
  7 10  1  0  0  0  0 
  7 13  1  0  0  0  0 
  8 10  1  0  0  0  0 
  8 14  1  0  0  0  0 
 11 15  2  0  0  0  0 
 12 16  2  0  0  0  0 
 13 17  2  0  0  0  0 
 13 19  1  0  0  0  0 
 14 18  2  0  0  0  0 
 14 20  1  0  0  0  0 
 15 17  1  0  0  0  0 
 15 21  1  0  0  0  0 
 16 18  1  0  0  0  0 
 16 22  1  0  0  0  0 
 17 23  1  0  0  0  0 
 18 24  1  0  0  0  0 
M  END
> <cdk:Title>
2950

> <cdk:Remark>
null

> <PUBCHEM_COMPOUND_CID>
2950

> <PUBCHEM_COMPOUND_CANONICALIZED>
1

> <PUBCHEM_CACTVS_COMPLEXITY>
346

> <PUBCHEM_CACTVS_HBOND_ACCEPTOR>
4

> <PUBCHEM_CACTVS_HBOND_DONOR>
2

> <PUBCHEM_CACTVS_ROTATABLE_BOND>
0

> <PUBCHEM_CACTVS_SUBSKEYS>
AAADccBwOAAAAAAAAAAAAAAAAAAAAAAAAAAwYMAAAAAAAADBQAAAGgAACAAADASAmAAwBoAAAgCIAqBSAAACAAAkIAAIiAEGCMgIJjaCFRKAcUAk4BEImYeL6PSOgAABAAAYAACAAAYAADAAAAAAAAAAAA==

> <PUBCHEM_IUPAC_OPENEYE_NAME>
1,8-dihydroxyanthracene-9,10-dione

> <PUBCHEM_IUPAC_CAS_NAME>
1,8-dihydroxyanthracene-9,10-dione

> <PUBCHEM_IUPAC_NAME>
1,8-dihydroxyanthracene-9,10-dione

> <PUBCHEM_IUPAC_SYSTEMATIC_NAME>
1,8-bis(oxidanyl)anthracene-9,10-dione

> <PUBCHEM_IUPAC_TRADITIONAL_NAME>
1,8-dihydroxy-9,10-anthraquinone

> <PUBCHEM_IUPAC_INCHI>
InChI=1S/C14H8O4/c15-9-5-1-3-7-11(9)14(18)12-8(13(7)17)4-2-6-10(12)16/h1-6,15-16H

> <PUBCHEM_IUPAC_INCHIKEY>
QBPFLULOKWLNNW-UHFFFAOYSA-N

> <PUBCHEM_XLOGP3>
3.2

> <PUBCHEM_EXACT_MASS>
240.042259

> <PUBCHEM_MOLECULAR_FORMULA>
C14H8O4

> <PUBCHEM_MOLECULAR_WEIGHT>
240.21092

> <PUBCHEM_OPENEYE_CAN_SMILES>
C1=CC2=C(C(=C1)O)C(=O)C3=C(C2=O)C=CC=C3O

> <PUBCHEM_OPENEYE_ISO_SMILES>
C1=CC2=C(C(=C1)O)C(=O)C3=C(C2=O)C=CC=C3O

> <PUBCHEM_CACTVS_TPSA>
74.6

> <PUBCHEM_MONOISOTOPIC_WEIGHT>
240.042259

> <PUBCHEM_TOTAL_CHARGE>
0

> <PUBCHEM_HEAVY_ATOM_COUNT>
18

> <PUBCHEM_ATOM_DEF_STEREO_COUNT>
0

> <PUBCHEM_ATOM_UDEF_STEREO_COUNT>
0

> <PUBCHEM_BOND_DEF_STEREO_COUNT>
0

> <PUBCHEM_BOND_UDEF_STEREO_COUNT>
0

> <PUBCHEM_ISOTOPIC_ATOM_COUNT>
0

> <PUBCHEM_COMPONENT_COUNT>
1

> <PUBCHEM_CACTVS_TAUTO_COUNT>
14

> <PUBCHEM_COORDINATE_TYPE>
1
5
255

> <PUBCHEM_BONDANNOTATIONS>
11  15  8
12  16  8
13  17  8
14  18  8
15  17  8
16  18  8
5  11  8
5  7  8
6  12  8
6  8  8
7  13  8
8  14  8

> <DRUG_ID>
w108

> <DRUG_NAME>
Danthron

$$$$
2788
  CDK     0927151942
null
 18 19  0  0  0  0  0  0  0  0999 V2000
    2.0000   -0.8450    0.0000 I   0  0  0  0  0  0  0  0  0  0  0  0
    3.7320    2.1550    0.0000 Cl  0  0  0  0  0  0  0  0  0  0  0  0
    3.7320   -1.8450    0.0000 O   0  0  0  0  0  0  0  0  0  0  0  0
    5.4920   -0.8797    0.0000 N   0  0  0  0  0  0  0  0  0  0  0  0
    4.5981    0.6550    0.0000 C   0  0  0  0  0  0  0  0  0  0  0  0
    4.5981   -0.3450    0.0000 C   0  0  0  0  0  0  0  0  0  0  0  0
    3.7320   -0.8450    0.0000 C   0  0  0  0  0  0  0  0  0  0  0  0
    3.7320    1.1550    0.0000 C   0  0  0  0  0  0  0  0  0  0  0  0
    5.4920    1.1897    0.0000 C   0  0  0  0  0  0  0  0  0  0  0  0
    2.8660   -0.3450    0.0000 C   0  0  0  0  0  0  0  0  0  0  0  0
    2.8660    0.6550    0.0000 C   0  0  0  0  0  0  0  0  0  0  0  0
    6.3981    0.6758    0.0000 C   0  0  0  0  0  0  0  0  0  0  0  0
    6.3981   -0.3658    0.0000 C   0  0  0  0  0  0  0  0  0  0  0  0
    5.4848    1.8096    0.0000 H   0  0  0  0  0  0  0  0  0  0  0  0
    2.3291    0.9650    0.0000 H   0  0  0  0  0  0  0  0  0  0  0  0
    6.9338    0.9879    0.0000 H   0  0  0  0  0  0  0  0  0  0  0  0
    6.9338   -0.6779    0.0000 H   0  0  0  0  0  0  0  0  0  0  0  0
    3.1951   -2.1550    0.0000 H   0  0  0  0  0  0  0  0  0  0  0  0
  1 10  1  0  0  0  0 
  2  8  1  0  0  0  0 
  3  7  1  0  0  0  0 
  3 18  1  0  0  0  0 
  4  6  1  0  0  0  0 
  4 13  2  0  0  0  0 
  5  6  2  0  0  0  0 
  5  8  1  0  0  0  0 
  5  9  1  0  0  0  0 
  6  7  1  0  0  0  0 
  7 10  2  0  0  0  0 
  8 11  2  0  0  0  0 
  9 12  2  0  0  0  0 
  9 14  1  0  0  0  0 
 10 11  1  0  0  0  0 
 11 15  1  0  0  0  0 
 12 13  1  0  0  0  0 
 12 16  1  0  0  0  0 
 13 17  1  0  0  0  0 
M  END
> <cdk:Title>
2788

> <cdk:Remark>
null

> <PUBCHEM_COMPOUND_CID>
2788

> <PUBCHEM_COMPOUND_CANONICALIZED>
1

> <PUBCHEM_CACTVS_COMPLEXITY>
193

> <PUBCHEM_CACTVS_HBOND_ACCEPTOR>
2

> <PUBCHEM_CACTVS_HBOND_DONOR>
1

> <PUBCHEM_CACTVS_ROTATABLE_BOND>
0

> <PUBCHEM_CACTVS_SUBSKEYS>
AAADcYByIAAEAgAAAAAAAAAAAAAAAAAAAAA8QAAAAAAAAACx8AAAHgIgCAAADA7DniQ8xvIIEgCgAzRnRASCgCAxZyAI2CA9bpgKJuLTk5OEcAhkwBHY2AeQwLAOACABAAIDEAAAQAIABAYgAAAAAAAAAA==

> <PUBCHEM_IUPAC_OPENEYE_NAME>
5-chloro-7-iodo-quinolin-8-ol

> <PUBCHEM_IUPAC_CAS_NAME>
5-chloro-7-iodo-8-quinolinol

> <PUBCHEM_IUPAC_NAME>
5-chloro-7-iodoquinolin-8-ol

> <PUBCHEM_IUPAC_SYSTEMATIC_NAME>
5-chloranyl-7-iodanyl-quinolin-8-ol

> <PUBCHEM_IUPAC_TRADITIONAL_NAME>
5-chloro-7-iodo-quinolin-8-ol

> <PUBCHEM_IUPAC_INCHI>
InChI=1S/C9H5ClINO/c10-6-4-7(11)9(13)8-5(6)2-1-3-12-8/h1-4,13H

> <PUBCHEM_IUPAC_INCHIKEY>
QCDFBFJGMNKBDO-UHFFFAOYSA-N

> <PUBCHEM_XLOGP3>
3.5

> <PUBCHEM_EXACT_MASS>
304.910439

> <PUBCHEM_MOLECULAR_FORMULA>
C9H5ClINO

> <PUBCHEM_MOLECULAR_WEIGHT>
305.49957

> <PUBCHEM_OPENEYE_CAN_SMILES>
C1=CC2=C(C(=C(C=C2Cl)I)O)N=C1

> <PUBCHEM_OPENEYE_ISO_SMILES>
C1=CC2=C(C(=C(C=C2Cl)I)O)N=C1

> <PUBCHEM_CACTVS_TPSA>
33.1

> <PUBCHEM_MONOISOTOPIC_WEIGHT>
304.910439

> <PUBCHEM_TOTAL_CHARGE>
0

> <PUBCHEM_HEAVY_ATOM_COUNT>
13

> <PUBCHEM_ATOM_DEF_STEREO_COUNT>
0

> <PUBCHEM_ATOM_UDEF_STEREO_COUNT>
0

> <PUBCHEM_BOND_DEF_STEREO_COUNT>
0

> <PUBCHEM_BOND_UDEF_STEREO_COUNT>
0

> <PUBCHEM_ISOTOPIC_ATOM_COUNT>
0

> <PUBCHEM_COMPONENT_COUNT>
1

> <PUBCHEM_CACTVS_TAUTO_COUNT>
2

> <PUBCHEM_COORDINATE_TYPE>
1
5
255

> <PUBCHEM_BONDANNOTATIONS>
10  11  8
12  13  8
4  13  8
4  6  8
5  6  8
5  8  8
5  9  8
6  7  8
7  10  8
8  11  8
9  12  8

> <DRUG_ID>
w109

> <DRUG_NAME>
Clioquinol

$$$$
2236
  CDK     0927151942
null
 36 39  0  0  0  0  0  0  0  0999 V2000
    2.5836    0.3765    0.0000 O   0  0  0  0  0  0  0  0  0  0  0  0
    2.5836    1.9860    0.0000 O   0  0  0  0  0  0  0  0  0  0  0  0
    6.1541   -2.9696    0.0000 O   0  0  0  0  0  0  0  0  0  0  0  0
    4.9611    3.3870    0.0000 O   0  0  0  0  0  0  0  0  0  0  0  0
    6.5887    2.7946    0.0000 O   0  0  0  0  0  0  0  0  0  0  0  0
    7.5115   -0.9235    0.0000 O   0  0  0  0  0  0  0  0  0  0  0  0
    7.7925    0.7856    0.0000 O   0  0  0  0  0  0  0  0  0  0  0  0
    7.1586    0.0122    0.0000 N   0  0  0  0  0  0  0  0  0  0  0  0
    4.3958    0.1813    0.0000 C   0  0  0  0  0  0  0  0  0  0  0  0
    5.2619    0.6813    0.0000 C   0  0  0  0  0  0  0  0  0  0  0  0
    4.3798   -0.8602    0.0000 C   0  0  0  0  0  0  0  0  0  0  0  0
    3.5298    0.6813    0.0000 C   0  0  0  0  0  0  0  0  0  0  0  0
    5.2778   -1.3880    0.0000 C   0  0  0  0  0  0  0  0  0  0  0  0
    6.1719    0.1744    0.0000 C   0  0  0  0  0  0  0  0  0  0  0  0
    5.2619    1.6813    0.0000 C   0  0  0  0  0  0  0  0  0  0  0  0
    3.5298    1.6813    0.0000 C   0  0  0  0  0  0  0  0  0  0  0  0
    6.1799   -0.8672    0.0000 C   0  0  0  0  0  0  0  0  0  0  0  0
    4.3958    2.1813    0.0000 C   0  0  0  0  0  0  0  0  0  0  0  0
    3.4279   -1.3809    0.0000 C   0  0  0  0  0  0  0  0  0  0  0  0
    5.2862   -2.4730    0.0000 C   0  0  0  0  0  0  0  0  0  0  0  0
    2.0000    1.1813    0.0000 C   0  0  0  0  0  0  0  0  0  0  0  0
    3.4111   -2.4657    0.0000 C   0  0  0  0  0  0  0  0  0  0  0  0
    4.3466   -3.0155    0.0000 C   0  0  0  0  0  0  0  0  0  0  0  0
    5.6039    2.6210    0.0000 C   0  0  0  0  0  0  0  0  0  0  0  0
    6.1580   -3.9696    0.0000 C   0  0  0  0  0  0  0  0  0  0  0  0
    6.7180   -1.1751    0.0000 H   0  0  0  0  0  0  0  0  0  0  0  0
    4.3958    2.8013    0.0000 H   0  0  0  0  0  0  0  0  0  0  0  0
    2.8970   -1.0606    0.0000 H   0  0  0  0  0  0  0  0  0  0  0  0
    1.5391    1.5960    0.0000 H   0  0  0  0  0  0  0  0  0  0  0  0
    1.5391    0.7665    0.0000 H   0  0  0  0  0  0  0  0  0  0  0  0
    2.8707   -2.7695    0.0000 H   0  0  0  0  0  0  0  0  0  0  0  0
    4.3442   -3.6354    0.0000 H   0  0  0  0  0  0  0  0  0  0  0  0
    5.5380   -3.9720    0.0000 H   0  0  0  0  0  0  0  0  0  0  0  0
    6.1604   -4.5896    0.0000 H   0  0  0  0  0  0  0  0  0  0  0  0
    6.7780   -3.9672    0.0000 H   0  0  0  0  0  0  0  0  0  0  0  0
    5.1732    3.9696    0.0000 H   0  0  0  0  0  0  0  0  0  0  0  0
  1 12  1  0  0  0  0 
  1 21  1  0  0  0  0 
  2 16  1  0  0  0  0 
  2 21  1  0  0  0  0 
  3 20  1  0  0  0  0 
  3 25  1  0  0  0  0 
  4 24  1  0  0  0  0 
  4 36  1  0  0  0  0 
  5 24  2  0  0  0  0 
  6  8  1  0  0  0  0 
  7  8  2  0  0  0  0 
  8 14  1  0  0  0  0 
  9 10  1  0  0  0  0 
  9 11  2  0  0  0  0 
  9 12  1  0  0  0  0 
 10 14  2  0  0  0  0 
 10 15  1  0  0  0  0 
 11 13  1  0  0  0  0 
 11 19  1  0  0  0  0 
 12 16  2  0  0  0  0 
 13 17  2  0  0  0  0 
 13 20  1  0  0  0  0 
 14 17  1  0  0  0  0 
 15 18  2  0  0  0  0 
 15 24  1  0  0  0  0 
 16 18  1  0  0  0  0 
 17 26  1  0  0  0  0 
 18 27  1  0  0  0  0 
 19 22  2  0  0  0  0 
 19 28  1  0  0  0  0 
 20 23  2  0  0  0  0 
 21 29  1  0  0  0  0 
 21 30  1  0  0  0  0 
 22 23  1  0  0  0  0 
 22 31  1  0  0  0  0 
 23 32  1  0  0  0  0 
 25 33  1  0  0  0  0 
 25 34  1  0  0  0  0 
 25 35  1  0  0  0  0 
M  CHG  1   6  -1
M  CHG  1   8   1
M  END
> <cdk:Title>
2236

> <cdk:Remark>
null

> <PUBCHEM_COMPOUND_CID>
2236

> <PUBCHEM_COMPOUND_CANONICALIZED>
0

> <PUBCHEM_CACTVS_COMPLEXITY>
550

> <PUBCHEM_CACTVS_HBOND_ACCEPTOR>
7

> <PUBCHEM_CACTVS_HBOND_DONOR>
1

> <PUBCHEM_CACTVS_ROTATABLE_BOND>
2

> <PUBCHEM_CACTVS_SUBSKEYS>
AAADccB6OAAAAAAAAAAAAAAAAAAAASAAAAAwYMAAAAAAAEjBVAAAHgAECAAADAyBmAMyzsAQRgCJAiTSSwCCCAAkIgAoiAEG7ModJjKEtZugcSJkwBEO+Yf+/P3O6AADQAAaQADQAAaAADSAAAAAAAAAAA==

> <PUBCHEM_IUPAC_INCHI>
InChI=1S/C17H11NO7/c1-23-12-4-2-3-8-9(12)5-11(18(21)22)14-10(17(19)20)6-13-16(15(8)14)25-7-24-13/h2-6H,7H2,1H3,(H,19,20)

> <PUBCHEM_IUPAC_INCHIKEY>
BBFQZRXNYIEMAW-UHFFFAOYSA-N

> <PUBCHEM_XLOGP3_AA>
3.6

> <PUBCHEM_EXACT_MASS>
341.053552

> <PUBCHEM_MOLECULAR_FORMULA>
C17H11NO7

> <PUBCHEM_MOLECULAR_WEIGHT>
341.27174

> <PUBCHEM_OPENEYE_CAN_SMILES>
COC1=CC=CC2=C3C(=C(C=C21)[N+](=O)[O-])C(=CC4=C3OCO4)C(=O)O

> <PUBCHEM_OPENEYE_ISO_SMILES>
COC1=CC=CC2=C3C(=C(C=C21)[N+](=O)[O-])C(=CC4=C3OCO4)C(=O)O

> <PUBCHEM_CACTVS_TPSA>
111

> <PUBCHEM_MONOISOTOPIC_WEIGHT>
341.053552

> <PUBCHEM_TOTAL_CHARGE>
0

> <PUBCHEM_HEAVY_ATOM_COUNT>
25

> <PUBCHEM_ATOM_DEF_STEREO_COUNT>
0

> <PUBCHEM_ATOM_UDEF_STEREO_COUNT>
0

> <PUBCHEM_BOND_DEF_STEREO_COUNT>
0

> <PUBCHEM_BOND_UDEF_STEREO_COUNT>
0

> <PUBCHEM_ISOTOPIC_ATOM_COUNT>
0

> <PUBCHEM_COMPONENT_COUNT>
1

> <PUBCHEM_CACTVS_TAUTO_COUNT>
1

> <PUBCHEM_COORDINATE_TYPE>
1
5
255

> <PUBCHEM_BONDANNOTATIONS>
10  14  8
10  15  8
11  13  8
11  19  8
12  16  8
13  17  8
13  20  8
14  17  8
15  18  8
16  18  8
19  22  8
20  23  8
22  23  8
9  10  8
9  11  8
9  12  8

> <DRUG_ID>
w11

> <DRUG_NAME>
Aristolochic acid

$$$$
6305
  CDK     0927151942
null
 27 28  0  0  0  0  0  0  0  0999 V2000
    7.2566    1.9615    0.0000 O   0  0  0  0  0  0  0  0  0  0  0  0
    5.6103    2.4996    0.0000 O   0  0  0  0  0  0  0  0  0  0  0  0
    4.6783   -1.9615    0.0000 N   0  0  0  0  0  0  0  0  0  0  0  0
    6.6353    0.0604    0.0000 N   0  0  0  0  0  0  0  0  0  0  0  0
    4.6783   -0.3520    0.0000 C   0  0  0  0  0  0  0  0  0  0  0  0
    4.9889    0.5985    0.0000 C   0  0  0  0  0  0  0  0  0  0  0  0
    3.7320   -0.6567    0.0000 C   0  0  0  0  0  0  0  0  0  0  0  0
    5.9674    0.8047    0.0000 C   0  0  1  0  0  0  0  0  0  0  0  0
    3.7320   -1.6567    0.0000 C   0  0  0  0  0  0  0  0  0  0  0  0
    5.2619   -1.1567    0.0000 C   0  0  0  0  0  0  0  0  0  0  0  0
    2.8660   -0.1567    0.0000 C   0  0  0  0  0  0  0  0  0  0  0  0
    2.8660   -2.1567    0.0000 C   0  0  0  0  0  0  0  0  0  0  0  0
    6.2781    1.7552    0.0000 C   0  0  0  0  0  0  0  0  0  0  0  0
    2.0000   -0.6567    0.0000 C   0  0  0  0  0  0  0  0  0  0  0  0
    2.0000   -1.6567    0.0000 C   0  0  0  0  0  0  0  0  0  0  0  0
    4.9684    1.2182    0.0000 H   0  0  0  0  0  0  0  0  0  0  0  0
    4.3751    0.6859    0.0000 H   0  0  0  0  0  0  0  0  0  0  0  0
    5.7748    0.2154    0.0000 H   0  0  0  0  0  0  0  0  0  0  0  0
    5.8819   -1.1567    0.0000 H   0  0  0  0  0  0  0  0  0  0  0  0
    4.8709   -2.5508    0.0000 H   0  0  0  0  0  0  0  0  0  0  0  0
    2.8660    0.4633    0.0000 H   0  0  0  0  0  0  0  0  0  0  0  0
    2.8660   -2.7767    0.0000 H   0  0  0  0  0  0  0  0  0  0  0  0
    1.4631   -0.3467    0.0000 H   0  0  0  0  0  0  0  0  0  0  0  0
    7.2420    0.1883    0.0000 H   0  0  0  0  0  0  0  0  0  0  0  0
    6.4427   -0.5289    0.0000 H   0  0  0  0  0  0  0  0  0  0  0  0
    1.4631   -1.9667    0.0000 H   0  0  0  0  0  0  0  0  0  0  0  0
    7.4492    2.5508    0.0000 H   0  0  0  0  0  0  0  0  0  0  0  0
  1 13  1  0  0  0  0 
  1 27  1  0  0  0  0 
  2 13  2  0  0  0  0 
  3  9  1  0  0  0  0 
  3 10  1  0  0  0  0 
  3 20  1  0  0  0  0 
  8  4  1  1  0  0  0 
  4 24  1  0  0  0  0 
  4 25  1  0  0  0  0 
  5  6  1  0  0  0  0 
  5  7  1  0  0  0  0 
  5 10  2  0  0  0  0 
  6  8  1  0  0  0  0 
  6 16  1  0  0  0  0 
  6 17  1  0  0  0  0 
  7  9  1  0  0  0  0 
  7 11  2  0  0  0  0 
  8 13  1  0  0  0  0 
  8 18  1  0  0  0  0 
  9 12  2  0  0  0  0 
 10 19  1  0  0  0  0 
 11 14  1  0  0  0  0 
 11 21  1  0  0  0  0 
 12 15  1  0  0  0  0 
 12 22  1  0  0  0  0 
 14 15  2  0  0  0  0 
 14 23  1  0  0  0  0 
 15 26  1  0  0  0  0 
M  END
> <cdk:Title>
6305

> <cdk:Remark>
null

> <PUBCHEM_COMPOUND_CID>
6305

> <PUBCHEM_COMPOUND_CANONICALIZED>
1

> <PUBCHEM_CACTVS_COMPLEXITY>
245

> <PUBCHEM_CACTVS_HBOND_ACCEPTOR>
3

> <PUBCHEM_CACTVS_HBOND_DONOR>
3

> <PUBCHEM_CACTVS_ROTATABLE_BOND>
3

> <PUBCHEM_CACTVS_SUBSKEYS>
AAADccBzMAAAAAAAAAAAAAAAAAAAAWAAAAAwAAAAAAAAAFgB8AAAHgAQCAAADCjBngQ8yPLJkgCoAzT3TACCgCAxAiAI2aG4ZJgKIPLAkZGEYAhkkADIyAeY2fKOgAAAAAACAAAAAAAAAAQAAAAAAAAAAA==

> <PUBCHEM_IUPAC_OPENEYE_NAME>
(2S)-2-amino-3-(1H-indol-3-yl)propanoic acid

> <PUBCHEM_IUPAC_CAS_NAME>
(2S)-2-amino-3-(1H-indol-3-yl)propanoic acid

> <PUBCHEM_IUPAC_NAME>
(2S)-2-amino-3-(1H-indol-3-yl)propanoic acid

> <PUBCHEM_IUPAC_SYSTEMATIC_NAME>
(2S)-2-azanyl-3-(1H-indol-3-yl)propanoic acid

> <PUBCHEM_IUPAC_TRADITIONAL_NAME>
(2S)-2-amino-3-(1H-indol-3-yl)propionic acid

> <PUBCHEM_IUPAC_INCHI>
InChI=1S/C11H12N2O2/c12-9(11(14)15)5-7-6-13-10-4-2-1-3-8(7)10/h1-4,6,9,13H,5,12H2,(H,14,15)/t9-/m0/s1

> <PUBCHEM_IUPAC_INCHIKEY>
QIVBCDIJIAJPQS-VIFPVBQESA-N

> <PUBCHEM_XLOGP3>
-1.1

> <PUBCHEM_EXACT_MASS>
204.089878

> <PUBCHEM_MOLECULAR_FORMULA>
C11H12N2O2

> <PUBCHEM_MOLECULAR_WEIGHT>
204.22518

> <PUBCHEM_OPENEYE_CAN_SMILES>
C1=CC=C2C(=C1)C(=CN2)CC(C(=O)O)N

> <PUBCHEM_OPENEYE_ISO_SMILES>
C1=CC=C2C(=C1)C(=CN2)C[C@@H](C(=O)O)N

> <PUBCHEM_CACTVS_TPSA>
79.1

> <PUBCHEM_MONOISOTOPIC_WEIGHT>
204.089878

> <PUBCHEM_TOTAL_CHARGE>
0

> <PUBCHEM_HEAVY_ATOM_COUNT>
15

> <PUBCHEM_ATOM_DEF_STEREO_COUNT>
1

> <PUBCHEM_ATOM_UDEF_STEREO_COUNT>
0

> <PUBCHEM_BOND_DEF_STEREO_COUNT>
0

> <PUBCHEM_BOND_UDEF_STEREO_COUNT>
0

> <PUBCHEM_ISOTOPIC_ATOM_COUNT>
0

> <PUBCHEM_COMPONENT_COUNT>
1

> <PUBCHEM_CACTVS_TAUTO_COUNT>
11

> <PUBCHEM_COORDINATE_TYPE>
1
5
255

> <PUBCHEM_BONDANNOTATIONS>
11  14  8
12  15  8
14  15  8
3  10  8
3  9  8
8  4  5
5  10  8
5  7  8
7  11  8
7  9  8
9  12  8

> <DRUG_ID>
w110

> <DRUG_NAME>
Tryptophan

$$$$
60021
  CDK     0927151942
null
 48 51  0  0  0  0  0  0  0  0999 V2000
    8.6651    2.5242    0.0000 F   0  0  0  0  0  0  0  0  0  0  0  0
    3.4030   -0.5000    0.0000 F   0  0  0  0  0  0  0  0  0  0  0  0
    5.1350   -3.5000    0.0000 F   0  0  0  0  0  0  0  0  0  0  0  0
    5.1350    3.5000    0.0000 O   0  0  0  0  0  0  0  0  0  0  0  0
    2.5369    2.0000    0.0000 O   0  0  0  0  0  0  0  0  0  0  0  0
    3.4030    3.5000    0.0000 O   0  0  0  0  0  0  0  0  0  0  0  0
    8.6651    0.4758    0.0000 N   0  0  3  0  0  0  0  0  0  0  0  0
   10.3933   -0.5308    0.0000 N   0  0  0  0  0  0  0  0  0  0  0  0
    5.1350    0.5000    0.0000 N   0  0  0  0  0  0  0  0  0  0  0  0
    9.5254   -1.0275    0.0000 C   0  0  3  0  0  0  0  0  0  0  0  0
    8.6613   -0.5241    0.0000 C   0  0  0  0  0  0  0  0  0  0  0  0
    9.5331    0.9725    0.0000 C   0  0  0  0  0  0  0  0  0  0  0  0
   10.3972    0.4692    0.0000 C   0  0  0  0  0  0  0  0  0  0  0  0
    7.8010    0.9792    0.0000 C   0  0  0  0  0  0  0  0  0  0  0  0
    9.5215   -2.0275    0.0000 C   0  0  0  0  0  0  0  0  0  0  0  0
    6.8950    0.4653    0.0000 C   0  0  0  0  0  0  0  0  0  0  0  0
    6.0010    1.0000    0.0000 C   0  0  0  0  0  0  0  0  0  0  0  0
    7.8010    2.0208    0.0000 C   0  0  0  0  0  0  0  0  0  0  0  0
    6.0010    2.0000    0.0000 C   0  0  0  0  0  0  0  0  0  0  0  0
    6.8950    2.5347    0.0000 C   0  0  0  0  0  0  0  0  0  0  0  0
    5.1350    2.5000    0.0000 C   0  0  0  0  0  0  0  0  0  0  0  0
    4.2690    1.0000    0.0000 C   0  0  0  0  0  0  0  0  0  0  0  0
    4.2690    2.0000    0.0000 C   0  0  0  0  0  0  0  0  0  0  0  0
    5.1350   -0.5000    0.0000 C   0  0  0  0  0  0  0  0  0  0  0  0
    4.2690   -1.0000    0.0000 C   0  0  0  0  0  0  0  0  0  0  0  0
    6.0010   -1.0000    0.0000 C   0  0  0  0  0  0  0  0  0  0  0  0
    3.4030    2.5000    0.0000 C   0  0  0  0  0  0  0  0  0  0  0  0
    4.2690   -2.0000    0.0000 C   0  0  0  0  0  0  0  0  0  0  0  0
    6.0010   -2.0000    0.0000 C   0  0  0  0  0  0  0  0  0  0  0  0
    5.1350   -2.5000    0.0000 C   0  0  0  0  0  0  0  0  0  0  0  0
   10.0611   -1.3395    0.0000 H   0  0  0  0  0  0  0  0  0  0  0  0
    8.0511   -0.4141    0.0000 H   0  0  0  0  0  0  0  0  0  0  0  0
    8.4470   -1.1059    0.0000 H   0  0  0  0  0  0  0  0  0  0  0  0
    9.9334    1.4459    0.0000 H   0  0  0  0  0  0  0  0  0  0  0  0
    9.1364    1.4490    0.0000 H   0  0  0  0  0  0  0  0  0  0  0  0
   11.0073    0.3592    0.0000 H   0  0  0  0  0  0  0  0  0  0  0  0
   10.6115    1.0510    0.0000 H   0  0  0  0  0  0  0  0  0  0  0  0
   10.9291   -0.8429    0.0000 H   0  0  0  0  0  0  0  0  0  0  0  0
    8.9015   -2.0251    0.0000 H   0  0  0  0  0  0  0  0  0  0  0  0
    9.5191   -2.6475    0.0000 H   0  0  0  0  0  0  0  0  0  0  0  0
   10.1415   -2.0299    0.0000 H   0  0  0  0  0  0  0  0  0  0  0  0
    6.8878   -0.1546    0.0000 H   0  0  0  0  0  0  0  0  0  0  0  0
    6.8878    3.1546    0.0000 H   0  0  0  0  0  0  0  0  0  0  0  0
    3.7320    0.6900    0.0000 H   0  0  0  0  0  0  0  0  0  0  0  0
    6.5380   -0.6900    0.0000 H   0  0  0  0  0  0  0  0  0  0  0  0
    3.7320   -2.3100    0.0000 H   0  0  0  0  0  0  0  0  0  0  0  0
    6.5380   -2.3100    0.0000 H   0  0  0  0  0  0  0  0  0  0  0  0
    2.0000    2.3100    0.0000 H   0  0  0  0  0  0  0  0  0  0  0  0
  1 18  1  0  0  0  0 
  2 25  1  0  0  0  0 
  3 30  1  0  0  0  0 
  4 21  2  0  0  0  0 
  5 27  1  0  0  0  0 
  5 48  1  0  0  0  0 
  6 27  2  0  0  0  0 
  7 11  1  0  0  0  0 
  7 12  1  0  0  0  0 
  7 14  1  0  0  0  0 
  8 10  1  0  0  0  0 
  8 13  1  0  0  0  0 
  8 38  1  0  0  0  0 
  9 17  1  0  0  0  0 
  9 22  1  0  0  0  0 
  9 24  1  0  0  0  0 
 10 11  1  0  0  0  0 
 10 15  1  0  0  0  0 
 10 31  1  0  0  0  0 
 11 32  1  0  0  0  0 
 11 33  1  0  0  0  0 
 12 13  1  0  0  0  0 
 12 34  1  0  0  0  0 
 12 35  1  0  0  0  0 
 13 36  1  0  0  0  0 
 13 37  1  0  0  0  0 
 14 16  1  0  0  0  0 
 14 18  2  0  0  0  0 
 15 39  1  0  0  0  0 
 15 40  1  0  0  0  0 
 15 41  1  0  0  0  0 
 16 17  2  0  0  0  0 
 16 42  1  0  0  0  0 
 17 19  1  0  0  0  0 
 18 20  1  0  0  0  0 
 19 20  2  0  0  0  0 
 19 21  1  0  0  0  0 
 20 43  1  0  0  0  0 
 21 23  1  0  0  0  0 
 22 23  2  0  0  0  0 
 22 44  1  0  0  0  0 
 23 27  1  0  0  0  0 
 24 25  2  0  0  0  0 
 24 26  1  0  0  0  0 
 25 28  1  0  0  0  0 
 26 29  2  0  0  0  0 
 26 45  1  0  0  0  0 
 28 30  2  0  0  0  0 
 28 46  1  0  0  0  0 
 29 30  1  0  0  0  0 
 29 47  1  0  0  0  0 
M  END
> <cdk:Title>
60021

> <cdk:Remark>
null

> <PUBCHEM_COMPOUND_CID>
60021

> <PUBCHEM_COMPOUND_CANONICALIZED>
1

> <PUBCHEM_CACTVS_COMPLEXITY>
721

> <PUBCHEM_CACTVS_HBOND_ACCEPTOR>
9

> <PUBCHEM_CACTVS_HBOND_DONOR>
2

> <PUBCHEM_CACTVS_ROTATABLE_BOND>
3

> <PUBCHEM_CACTVS_SUBSKEYS>
AAADceB7MYAAAAAAAAAAAAAAAAAAAAAAAAA8YIEAAAAAAACBQAAAHwAQCAAADCzBmAwyyIPAAgCIAqTWSACCAAAlAgAIiIEIZMgIZH7I1dGUYYhksADI2ceY2aOeCAAAAAQCAAAQAAAACAQAAAAAAAAAAA==

> <PUBCHEM_IUPAC_OPENEYE_NAME>
1-(2,4-difluorophenyl)-6-fluoro-7-(3-methylpiperazin-1-yl)-4-oxo-quinoline-3-carboxylic acid

> <PUBCHEM_IUPAC_CAS_NAME>
1-(2,4-difluorophenyl)-6-fluoro-7-(3-methyl-1-piperazinyl)-4-oxo-3-quinolinecarboxylic acid

> <PUBCHEM_IUPAC_NAME>
1-(2,4-difluorophenyl)-6-fluoro-7-(3-methylpiperazin-1-yl)-4-oxoquinoline-3-carboxylic acid

> <PUBCHEM_IUPAC_SYSTEMATIC_NAME>
1-[2,4-bis(fluoranyl)phenyl]-6-fluoranyl-7-(3-methylpiperazin-1-yl)-4-oxidanylidene-quinoline-3-carboxylic acid

> <PUBCHEM_IUPAC_TRADITIONAL_NAME>
1-(2,4-difluorophenyl)-6-fluoro-4-keto-7-(3-methylpiperazino)quinoline-3-carboxylic acid

> <PUBCHEM_IUPAC_INCHI>
InChI=1S/C21H18F3N3O3/c1-11-9-26(5-4-25-11)19-8-18-13(7-16(19)24)20(28)14(21(29)30)10-27(18)17-3-2-12(22)6-15(17)23/h2-3,6-8,10-11,25H,4-5,9H2,1H3,(H,29,30)

> <PUBCHEM_IUPAC_INCHIKEY>
QKDHBVNJCZBTMR-UHFFFAOYSA-N

> <PUBCHEM_XLOGP3>
0.6

> <PUBCHEM_EXACT_MASS>
417.130026

> <PUBCHEM_MOLECULAR_FORMULA>
C21H18F3N3O3

> <PUBCHEM_MOLECULAR_WEIGHT>
417.38113

> <PUBCHEM_OPENEYE_CAN_SMILES>
CC1CN(CCN1)C2=C(C=C3C(=C2)N(C=C(C3=O)C(=O)O)C4=C(C=C(C=C4)F)F)F

> <PUBCHEM_OPENEYE_ISO_SMILES>
CC1CN(CCN1)C2=C(C=C3C(=C2)N(C=C(C3=O)C(=O)O)C4=C(C=C(C=C4)F)F)F

> <PUBCHEM_CACTVS_TPSA>
72.9

> <PUBCHEM_MONOISOTOPIC_WEIGHT>
417.130026

> <PUBCHEM_TOTAL_CHARGE>
0

> <PUBCHEM_HEAVY_ATOM_COUNT>
30

> <PUBCHEM_ATOM_DEF_STEREO_COUNT>
0

> <PUBCHEM_ATOM_UDEF_STEREO_COUNT>
1

> <PUBCHEM_BOND_DEF_STEREO_COUNT>
0

> <PUBCHEM_BOND_UDEF_STEREO_COUNT>
0

> <PUBCHEM_ISOTOPIC_ATOM_COUNT>
0

> <PUBCHEM_COMPONENT_COUNT>
1

> <PUBCHEM_CACTVS_TAUTO_COUNT>
1

> <PUBCHEM_COORDINATE_TYPE>
1
5
255

> <PUBCHEM_BONDANNOTATIONS>
10  15  3
14  16  8
14  18  8
16  17  8
17  19  8
18  20  8
19  20  8
19  21  8
21  23  8
22  23  8
24  25  8
24  26  8
25  28  8
26  29  8
28  30  8
29  30  8
9  17  8
9  22  8

> <DRUG_ID>
w111

> <DRUG_NAME>
Temafloxacin

$$$$
71467
  CDK     0927151942
null
 26 26  0  0  0  0  0  0  0  0999 V2000
    2.8660   -0.1550    0.0000 O   0  0  0  0  0  0  0  0  0  0  0  0
    4.5981    1.8450    0.0000 N   0  0  0  0  0  0  0  0  0  0  0  0
    4.5981    2.8450    0.0000 N   0  0  0  0  0  0  0  0  0  0  0  0
    3.7320    1.3450    0.0000 C   0  0  3  0  0  0  0  0  0  0  0  0
    3.7320    0.3450    0.0000 C   0  0  0  0  0  0  0  0  0  0  0  0
    2.8660    1.8450    0.0000 C   0  0  0  0  0  0  0  0  0  0  0  0
    2.8660   -1.1550    0.0000 C   0  0  0  0  0  0  0  0  0  0  0  0
    2.0000   -1.6550    0.0000 C   0  0  0  0  0  0  0  0  0  0  0  0
    3.7320   -1.6550    0.0000 C   0  0  0  0  0  0  0  0  0  0  0  0
    2.0000   -2.6550    0.0000 C   0  0  0  0  0  0  0  0  0  0  0  0
    3.7320   -2.6550    0.0000 C   0  0  0  0  0  0  0  0  0  0  0  0
    2.8660   -3.1550    0.0000 C   0  0  0  0  0  0  0  0  0  0  0  0
    3.7320    2.1950    0.0000 H   0  0  0  0  0  0  0  0  0  0  0  0
    3.9441   -0.2376    0.0000 H   0  0  0  0  0  0  0  0  0  0  0  0
    4.3426    0.4527    0.0000 H   0  0  0  0  0  0  0  0  0  0  0  0
    3.1760    2.3819    0.0000 H   0  0  0  0  0  0  0  0  0  0  0  0
    2.3291    2.1550    0.0000 H   0  0  0  0  0  0  0  0  0  0  0  0
    2.5560    1.3081    0.0000 H   0  0  0  0  0  0  0  0  0  0  0  0
    5.1350    1.5350    0.0000 H   0  0  0  0  0  0  0  0  0  0  0  0
    1.4631   -1.3450    0.0000 H   0  0  0  0  0  0  0  0  0  0  0  0
    4.2690   -1.3450    0.0000 H   0  0  0  0  0  0  0  0  0  0  0  0
    5.1350    3.1550    0.0000 H   0  0  0  0  0  0  0  0  0  0  0  0
    4.0611    3.1550    0.0000 H   0  0  0  0  0  0  0  0  0  0  0  0
    1.4631   -2.9650    0.0000 H   0  0  0  0  0  0  0  0  0  0  0  0
    4.2690   -2.9650    0.0000 H   0  0  0  0  0  0  0  0  0  0  0  0
    2.8660   -3.7750    0.0000 H   0  0  0  0  0  0  0  0  0  0  0  0
  1  5  1  0  0  0  0 
  1  7  1  0  0  0  0 
  2  3  1  0  0  0  0 
  2  4  1  0  0  0  0 
  2 19  1  0  0  0  0 
  3 22  1  0  0  0  0 
  3 23  1  0  0  0  0 
  4  5  1  0  0  0  0 
  4  6  1  0  0  0  0 
  4 13  1  0  0  0  0 
  5 14  1  0  0  0  0 
  5 15  1  0  0  0  0 
  6 16  1  0  0  0  0 
  6 17  1  0  0  0  0 
  6 18  1  0  0  0  0 
  7  8  2  0  0  0  0 
  7  9  1  0  0  0  0 
  8 10  1  0  0  0  0 
  8 20  1  0  0  0  0 
  9 11  2  0  0  0  0 
  9 21  1  0  0  0  0 
 10 12  2  0  0  0  0 
 10 24  1  0  0  0  0 
 11 12  1  0  0  0  0 
 11 25  1  0  0  0  0 
 12 26  1  0  0  0  0 
M  END
> <cdk:Title>
71467

> <cdk:Remark>
null

> <PUBCHEM_COMPOUND_CID>
71467

> <PUBCHEM_COMPOUND_CANONICALIZED>
1

> <PUBCHEM_CACTVS_COMPLEXITY>
113

> <PUBCHEM_CACTVS_HBOND_ACCEPTOR>
3

> <PUBCHEM_CACTVS_HBOND_DONOR>
2

> <PUBCHEM_CACTVS_ROTATABLE_BOND>
4

> <PUBCHEM_CACTVS_SUBSKEYS>
AAADccBzIAAAAAAAAAAAAAAAAAAAAAAAAAAwAAAAAAAAAAABAAAAHgAYAAAACCzhkAYyBoBiBACAACBCAAACCAAgIAIYqIAGCIgOJiKEMRqDOCCk0BEIqAeAQAAAAAAAAAAAAAAAAAAAAAAAAAAAAAAAAA==

> <PUBCHEM_IUPAC_OPENEYE_NAME>
(1-methyl-2-phenoxy-ethyl)hydrazine

> <PUBCHEM_IUPAC_CAS_NAME>
1-phenoxypropan-2-ylhydrazine

> <PUBCHEM_IUPAC_NAME>
1-phenoxypropan-2-ylhydrazine

> <PUBCHEM_IUPAC_SYSTEMATIC_NAME>
1-phenoxypropan-2-yldiazane

> <PUBCHEM_IUPAC_TRADITIONAL_NAME>
(1-methyl-2-phenoxy-ethyl)hydrazine

> <PUBCHEM_IUPAC_INCHI>
InChI=1S/C9H14N2O/c1-8(11-10)7-12-9-5-3-2-4-6-9/h2-6,8,11H,7,10H2,1H3

> <PUBCHEM_IUPAC_INCHIKEY>
QNEXFJFTGQBXBJ-UHFFFAOYSA-N

> <PUBCHEM_XLOGP3_AA>
1.1

> <PUBCHEM_EXACT_MASS>
166.110613

> <PUBCHEM_MOLECULAR_FORMULA>
C9H14N2O

> <PUBCHEM_MOLECULAR_WEIGHT>
166.22026

> <PUBCHEM_OPENEYE_CAN_SMILES>
CC(COC1=CC=CC=C1)NN

> <PUBCHEM_OPENEYE_ISO_SMILES>
CC(COC1=CC=CC=C1)NN

> <PUBCHEM_CACTVS_TPSA>
47.3

> <PUBCHEM_MONOISOTOPIC_WEIGHT>
166.110613

> <PUBCHEM_TOTAL_CHARGE>
0

> <PUBCHEM_HEAVY_ATOM_COUNT>
12

> <PUBCHEM_ATOM_DEF_STEREO_COUNT>
0

> <PUBCHEM_ATOM_UDEF_STEREO_COUNT>
1

> <PUBCHEM_BOND_DEF_STEREO_COUNT>
0

> <PUBCHEM_BOND_UDEF_STEREO_COUNT>
0

> <PUBCHEM_ISOTOPIC_ATOM_COUNT>
0

> <PUBCHEM_COMPONENT_COUNT>
1

> <PUBCHEM_CACTVS_TAUTO_COUNT>
1

> <PUBCHEM_COORDINATE_TYPE>
1
5
255

> <PUBCHEM_BONDANNOTATIONS>
10  12  8
11  12  8
4  13  3
7  8  8
7  9  8
8  10  8
9  11  8

> <DRUG_ID>
w112

> <DRUG_NAME>
Phenoxypropazine

$$$$
16574
  CDK     0927151942
null
 43 44  0  0  0  0  0  0  0  0999 V2000
    6.2633   -0.5526    0.0000 O   0  0  0  0  0  0  0  0  0  0  0  0
    4.3665   -2.3126    0.0000 O   0  0  0  0  0  0  0  0  0  0  0  0
    3.6942   -0.2436    0.0000 O   0  0  0  0  0  0  0  0  0  0  0  0
    7.5366   -2.2081    0.0000 O   0  0  0  0  0  0  0  0  0  0  0  0
    3.7222    1.0352    0.0000 O   0  0  0  0  0  0  0  0  0  0  0  0
    5.7678   -3.3307    0.0000 O   0  0  0  0  0  0  0  0  0  0  0  0
    3.1590   -1.8908    0.0000 O   0  0  0  0  0  0  0  0  0  0  0  0
    7.7176   -3.9307    0.0000 O   0  0  0  0  0  0  0  0  0  0  0  0
    5.4543    4.0352    0.0000 O   0  0  0  0  0  0  0  0  0  0  0  0
    5.4543    1.0352    0.0000 N   0  0  0  0  0  0  0  0  0  0  0  0
    6.3203    1.5352    0.0000 N   0  0  0  0  0  0  0  0  0  0  0  0
    4.5883    2.5352    0.0000 N   0  0  0  0  0  0  0  0  0  0  0  0
    4.9543   -1.5036    0.0000 C   0  0  1  0  0  0  0  0  0  0  0  0
    4.6453   -0.5526    0.0000 C   0  0  2  0  0  0  0  0  0  0  0  0
    5.9543   -1.5036    0.0000 C   0  0  1  0  0  0  0  0  0  0  0  0
    5.4543    0.0352    0.0000 C   0  0  1  0  0  0  0  0  0  0  0  0
    6.5421   -2.3126    0.0000 C   0  0  0  0  0  0  0  0  0  0  0  0
    4.5883    1.5352    0.0000 C   0  0  0  0  0  0  0  0  0  0  0  0
    4.7732   -3.2262    0.0000 C   0  0  0  0  0  0  0  0  0  0  0  0
    2.9511   -0.9127    0.0000 C   0  0  0  0  0  0  0  0  0  0  0  0
    6.3203    2.5352    0.0000 C   0  0  0  0  0  0  0  0  0  0  0  0
    8.1244   -3.0171    0.0000 C   0  0  0  0  0  0  0  0  0  0  0  0
    4.1854   -4.0352    0.0000 C   0  0  0  0  0  0  0  0  0  0  0  0
    5.4543    3.0352    0.0000 C   0  0  0  0  0  0  0  0  0  0  0  0
    2.0000   -0.6037    0.0000 C   0  0  0  0  0  0  0  0  0  0  0  0
    9.1189   -2.9126    0.0000 C   0  0  0  0  0  0  0  0  0  0  0  0
    4.3419   -1.4066    0.0000 H   0  0  0  0  0  0  0  0  0  0  0  0
    4.5483    0.0598    0.0000 H   0  0  0  0  0  0  0  0  0  0  0  0
    6.5666   -1.4066    0.0000 H   0  0  0  0  0  0  0  0  0  0  0  0
    4.9018    0.3167    0.0000 H   0  0  0  0  0  0  0  0  0  0  0  0
    5.9848   -2.5844    0.0000 H   0  0  0  0  0  0  0  0  0  0  0  0
    6.7130   -2.9086    0.0000 H   0  0  0  0  0  0  0  0  0  0  0  0
    4.0513    2.8452    0.0000 H   0  0  0  0  0  0  0  0  0  0  0  0
    6.8572    2.8452    0.0000 H   0  0  0  0  0  0  0  0  0  0  0  0
    3.6838   -3.6708    0.0000 H   0  0  0  0  0  0  0  0  0  0  0  0
    3.8210   -4.5368    0.0000 H   0  0  0  0  0  0  0  0  0  0  0  0
    4.6870   -4.3996    0.0000 H   0  0  0  0  0  0  0  0  0  0  0  0
    2.1916   -0.0140    0.0000 H   0  0  0  0  0  0  0  0  0  0  0  0
    1.4103   -0.4121    0.0000 H   0  0  0  0  0  0  0  0  0  0  0  0
    1.8084   -1.1933    0.0000 H   0  0  0  0  0  0  0  0  0  0  0  0
    9.1837   -3.5292    0.0000 H   0  0  0  0  0  0  0  0  0  0  0  0
    9.7355   -2.8478    0.0000 H   0  0  0  0  0  0  0  0  0  0  0  0
    9.0541   -2.2960    0.0000 H   0  0  0  0  0  0  0  0  0  0  0  0
  1 15  1  0  0  0  0 
  1 16  1  0  0  0  0 
 13  2  1  1  0  0  0 
  2 19  1  0  0  0  0 
 14  3  1  1  0  0  0 
  3 20  1  0  0  0  0 
  4 17  1  0  0  0  0 
  4 22  1  0  0  0  0 
  5 18  2  0  0  0  0 
  6 19  2  0  0  0  0 
  7 20  2  0  0  0  0 
  8 22  2  0  0  0  0 
  9 24  2  0  0  0  0 
 10 11  1  0  0  0  0 
 16 10  1  6  0  0  0 
 10 18  1  0  0  0  0 
 11 21  2  0  0  0  0 
 12 18  1  0  0  0  0 
 12 24  1  0  0  0  0 
 12 33  1  0  0  0  0 
 13 14  1  0  0  0  0 
 13 15  1  0  0  0  0 
 13 27  1  0  0  0  0 
 14 16  1  0  0  0  0 
 14 28  1  0  0  0  0 
 15 17  1  6  0  0  0 
 15 29  1  0  0  0  0 
 16 30  1  0  0  0  0 
 17 31  1  0  0  0  0 
 17 32  1  0  0  0  0 
 19 23  1  0  0  0  0 
 20 25  1  0  0  0  0 
 21 24  1  0  0  0  0 
 21 34  1  0  0  0  0 
 22 26  1  0  0  0  0 
 23 35  1  0  0  0  0 
 23 36  1  0  0  0  0 
 23 37  1  0  0  0  0 
 25 38  1  0  0  0  0 
 25 39  1  0  0  0  0 
 25 40  1  0  0  0  0 
 26 41  1  0  0  0  0 
 26 42  1  0  0  0  0 
 26 43  1  0  0  0  0 
M  END
> <cdk:Title>
16574

> <cdk:Remark>
null

> <PUBCHEM_COMPOUND_CID>
16574

> <PUBCHEM_COMPOUND_CANONICALIZED>
1

> <PUBCHEM_CACTVS_COMPLEXITY>
662

> <PUBCHEM_CACTVS_HBOND_ACCEPTOR>
10

> <PUBCHEM_CACTVS_HBOND_DONOR>
1

> <PUBCHEM_CACTVS_ROTATABLE_BOND>
8

> <PUBCHEM_CACTVS_SUBSKEYS>
AAADceBzPAAAAAAAAAAAAAAAAAAAASAAAAAgAAAAAAAAAAAAAAAAHgAYAAAACBThgAYDCALABAAoABGxGAAQAAAAAAAWAAAIAACDAAIAgAAPAAAfHyISAADwMAoAAAAAAAAAAAAAAAAAAAAAAAAAAAAAAA==

> <PUBCHEM_IUPAC_OPENEYE_NAME>
[(2R,3R,4R,5R)-3,4-diacetoxy-5-(3,5-dioxo-1,2,4-triazin-2-yl)tetrahydrofuran-2-yl]methyl acetate

> <PUBCHEM_IUPAC_CAS_NAME>
acetic acid [(2R,3R,4R,5R)-3,4-diacetyloxy-5-(3,5-dioxo-1,2,4-triazin-2-yl)-2-oxolanyl]methyl ester

> <PUBCHEM_IUPAC_NAME>
[(2R,3R,4R,5R)-3,4-diacetyloxy-5-(3,5-dioxo-1,2,4-triazin-2-yl)oxolan-2-yl]methyl acetate

> <PUBCHEM_IUPAC_SYSTEMATIC_NAME>
[(2R,3R,4R,5R)-3,4-diacetyloxy-5-[3,5-bis(oxidanylidene)-1,2,4-triazin-2-yl]oxolan-2-yl]methyl ethanoate

> <PUBCHEM_IUPAC_TRADITIONAL_NAME>
acetic acid [(2R,3R,4R,5R)-3,4-diacetoxy-5-(3,5-diketo-1,2,4-triazin-2-yl)tetrahydrofuran-2-yl]methyl ester

> <PUBCHEM_IUPAC_INCHI>
InChI=1S/C14H17N3O9/c1-6(18)23-5-9-11(24-7(2)19)12(25-8(3)20)13(26-9)17-14(22)16-10(21)4-15-17/h4,9,11-13H,5H2,1-3H3,(H,16,21,22)/t9-,11-,12-,13-/m1/s1

> <PUBCHEM_IUPAC_INCHIKEY>
QQOBRRFOVWGIMD-OJAKKHQRSA-N

> <PUBCHEM_XLOGP3>
-0.2

> <PUBCHEM_EXACT_MASS>
371.096479

> <PUBCHEM_MOLECULAR_FORMULA>
C14H17N3O9

> <PUBCHEM_MOLECULAR_WEIGHT>
371.29948

> <PUBCHEM_OPENEYE_CAN_SMILES>
CC(=O)OCC1C(C(C(O1)N2C(=O)NC(=O)C=N2)OC(=O)C)OC(=O)C

> <PUBCHEM_OPENEYE_ISO_SMILES>
CC(=O)OC[C@@H]1[C@H]([C@H]([C@@H](O1)N2C(=O)NC(=O)C=N2)OC(=O)C)OC(=O)C

> <PUBCHEM_CACTVS_TPSA>
150

> <PUBCHEM_MONOISOTOPIC_WEIGHT>
371.096479

> <PUBCHEM_TOTAL_CHARGE>
0

> <PUBCHEM_HEAVY_ATOM_COUNT>
26

> <PUBCHEM_ATOM_DEF_STEREO_COUNT>
4

> <PUBCHEM_ATOM_UDEF_STEREO_COUNT>
0

> <PUBCHEM_BOND_DEF_STEREO_COUNT>
0

> <PUBCHEM_BOND_UDEF_STEREO_COUNT>
0

> <PUBCHEM_ISOTOPIC_ATOM_COUNT>
0

> <PUBCHEM_COMPONENT_COUNT>
1

> <PUBCHEM_CACTVS_TAUTO_COUNT>
3

> <PUBCHEM_COORDINATE_TYPE>
1
5
255

> <PUBCHEM_BONDANNOTATIONS>
10  11  8
16  10  6
10  18  8
11  21  8
12  18  8
12  24  8
15  17  6
13  2  5
21  24  8
14  3  5

> <DRUG_ID>
w113

> <DRUG_NAME>
Azaribine

$$$$
8026
  CDK     0927151942
null
 10  9  0  0  0  0  0  0  0  0999 V2000
    3.7320   -0.2500    0.0000 O   0  0  0  0  0  0  0  0  0  0  0  0
    5.4641   -0.2500    0.0000 O   0  0  0  0  0  0  0  0  0  0  0  0
    4.5981    0.2500    0.0000 N   0  0  0  0  0  0  0  0  0  0  0  0
    2.8660    0.2500    0.0000 C   0  0  0  0  0  0  0  0  0  0  0  0
    2.0000   -0.2500    0.0000 C   0  0  0  0  0  0  0  0  0  0  0  0
    3.2646    0.7249    0.0000 H   0  0  0  0  0  0  0  0  0  0  0  0
    2.4675    0.7249    0.0000 H   0  0  0  0  0  0  0  0  0  0  0  0
    1.6900    0.2869    0.0000 H   0  0  0  0  0  0  0  0  0  0  0  0
    1.4631   -0.5600    0.0000 H   0  0  0  0  0  0  0  0  0  0  0  0
    2.3100   -0.7869    0.0000 H   0  0  0  0  0  0  0  0  0  0  0  0
  1  3  1  0  0  0  0 
  1  4  1  0  0  0  0 
  2  3  2  0  0  0  0 
  4  5  1  0  0  0  0 
  4  6  1  0  0  0  0 
  4  7  1  0  0  0  0 
  5  8  1  0  0  0  0 
  5  9  1  0  0  0  0 
  5 10  1  0  0  0  0 
M  END
> <cdk:Title>
8026

> <cdk:Remark>
null

> <PUBCHEM_COMPOUND_CID>
8026

> <PUBCHEM_COMPOUND_CANONICALIZED>
1

> <PUBCHEM_CACTVS_COMPLEXITY>
28.8

> <PUBCHEM_CACTVS_HBOND_ACCEPTOR>
3

> <PUBCHEM_CACTVS_HBOND_DONOR>
0

> <PUBCHEM_CACTVS_ROTATABLE_BOND>
1

> <PUBCHEM_CACTVS_SUBSKEYS>
AAADcYBCMAAAAAAAAAAAAAAAAAAAAAAAAAAAAAAAAAAAAAAAAAAAGgAEAAAAAACggAICAAAAQAABAAAAAQAAAAAAAAAAAAAAAAAAAAAAAAAAAAAAAAAAAAAAAAAAAAAAAAAAAAAAAAAAAAAAAAAAAAAAAA==

> <PUBCHEM_IUPAC_OPENEYE_NAME>
ethyl nitrite

> <PUBCHEM_IUPAC_CAS_NAME>
nitrous acid ethyl ester

> <PUBCHEM_IUPAC_NAME>
ethyl nitrite

> <PUBCHEM_IUPAC_SYSTEMATIC_NAME>
ethyl nitrite

> <PUBCHEM_IUPAC_TRADITIONAL_NAME>
nitrous acid ethyl ester

> <PUBCHEM_IUPAC_INCHI>
InChI=1S/C2H5NO2/c1-2-5-3-4/h2H2,1H3

> <PUBCHEM_IUPAC_INCHIKEY>
QQZWEECEMNQSTG-UHFFFAOYSA-N

> <PUBCHEM_XLOGP3_AA>
0.4

> <PUBCHEM_EXACT_MASS>
75.032028

> <PUBCHEM_MOLECULAR_FORMULA>
C2H5NO2

> <PUBCHEM_MOLECULAR_WEIGHT>
75.0666

> <PUBCHEM_OPENEYE_CAN_SMILES>
CCON=O

> <PUBCHEM_OPENEYE_ISO_SMILES>
CCON=O

> <PUBCHEM_CACTVS_TPSA>
38.7

> <PUBCHEM_MONOISOTOPIC_WEIGHT>
75.032028

> <PUBCHEM_TOTAL_CHARGE>
0

> <PUBCHEM_HEAVY_ATOM_COUNT>
5

> <PUBCHEM_ATOM_DEF_STEREO_COUNT>
0

> <PUBCHEM_ATOM_UDEF_STEREO_COUNT>
0

> <PUBCHEM_BOND_DEF_STEREO_COUNT>
0

> <PUBCHEM_BOND_UDEF_STEREO_COUNT>
0

> <PUBCHEM_ISOTOPIC_ATOM_COUNT>
0

> <PUBCHEM_COMPONENT_COUNT>
1

> <PUBCHEM_CACTVS_TAUTO_COUNT>
1

> <PUBCHEM_COORDINATE_TYPE>
1
5
255

> <DRUG_ID>
w114

> <DRUG_NAME>
Ethyl nitrite [spirit]

$$$$
35455
  CDK     0927151942
null
 44 46  0  0  0  0  0  0  0  0999 V2000
    4.5744    1.8649    0.0000 O   0  0  0  0  0  0  0  0  0  0  0  0
    7.4223   -0.2042    0.0000 O   0  0  0  0  0  0  0  0  0  0  0  0
    4.8532    0.1048    0.0000 N   0  0  0  0  0  0  0  0  0  0  0  0
    5.6622   -0.4829    0.0000 N   0  0  0  0  0  0  0  0  0  0  0  0
    6.1622    1.0559    0.0000 C   0  0  0  0  0  0  0  0  0  0  0  0
    5.1622    1.0559    0.0000 C   0  0  0  0  0  0  0  0  0  0  0  0
    6.4712    0.1048    0.0000 C   0  0  0  0  0  0  0  0  0  0  0  0
    6.7500    1.8649    0.0000 C   0  0  0  0  0  0  0  0  0  0  0  0
    5.6622   -1.4830    0.0000 C   0  0  0  0  0  0  0  0  0  0  0  0
    3.9021   -0.2042    0.0000 C   0  0  0  0  0  0  0  0  0  0  0  0
    7.7445    1.7604    0.0000 C   0  0  0  0  0  0  0  0  0  0  0  0
    8.3323    2.5694    0.0000 C   0  0  0  0  0  0  0  0  0  0  0  0
    4.7962   -1.9830    0.0000 C   0  0  0  0  0  0  0  0  0  0  0  0
    3.1590    0.4650    0.0000 C   0  0  0  0  0  0  0  0  0  0  0  0
    6.5282   -1.9830    0.0000 C   0  0  0  0  0  0  0  0  0  0  0  0
    3.6942   -1.1823    0.0000 C   0  0  0  0  0  0  0  0  0  0  0  0
    4.7962   -2.9830    0.0000 C   0  0  0  0  0  0  0  0  0  0  0  0
    2.2079    0.1559    0.0000 C   0  0  0  0  0  0  0  0  0  0  0  0
    2.7431   -1.4913    0.0000 C   0  0  0  0  0  0  0  0  0  0  0  0
    6.5282   -2.9830    0.0000 C   0  0  0  0  0  0  0  0  0  0  0  0
    9.3268    2.4649    0.0000 C   0  0  0  0  0  0  0  0  0  0  0  0
    7.9255    3.4830    0.0000 C   0  0  0  0  0  0  0  0  0  0  0  0
    2.0000   -0.8222    0.0000 C   0  0  0  0  0  0  0  0  0  0  0  0
    5.6622   -3.4830    0.0000 C   0  0  0  0  0  0  0  0  0  0  0  0
    6.7746    0.9589    0.0000 H   0  0  0  0  0  0  0  0  0  0  0  0
    6.9209    2.4609    0.0000 H   0  0  0  0  0  0  0  0  0  0  0  0
    6.1927    2.1367    0.0000 H   0  0  0  0  0  0  0  0  0  0  0  0
    7.9967    1.1940    0.0000 H   0  0  0  0  0  0  0  0  0  0  0  0
    4.2592   -1.6730    0.0000 H   0  0  0  0  0  0  0  0  0  0  0  0
    3.2879    1.0714    0.0000 H   0  0  0  0  0  0  0  0  0  0  0  0
    7.0652   -1.6730    0.0000 H   0  0  0  0  0  0  0  0  0  0  0  0
    4.1550   -1.5972    0.0000 H   0  0  0  0  0  0  0  0  0  0  0  0
    4.2592   -3.2930    0.0000 H   0  0  0  0  0  0  0  0  0  0  0  0
    1.7472    0.5708    0.0000 H   0  0  0  0  0  0  0  0  0  0  0  0
    7.0652   -3.2930    0.0000 H   0  0  0  0  0  0  0  0  0  0  0  0
    2.6142   -2.0978    0.0000 H   0  0  0  0  0  0  0  0  0  0  0  0
    8.4919    3.7351    0.0000 H   0  0  0  0  0  0  0  0  0  0  0  0
    7.6734    4.0493    0.0000 H   0  0  0  0  0  0  0  0  0  0  0  0
    7.3591    3.2308    0.0000 H   0  0  0  0  0  0  0  0  0  0  0  0
    9.2620    1.8483    0.0000 H   0  0  0  0  0  0  0  0  0  0  0  0
    9.9434    2.4001    0.0000 H   0  0  0  0  0  0  0  0  0  0  0  0
    9.3916    3.0815    0.0000 H   0  0  0  0  0  0  0  0  0  0  0  0
    5.6622   -4.1030    0.0000 H   0  0  0  0  0  0  0  0  0  0  0  0
    1.4103   -1.0138    0.0000 H   0  0  0  0  0  0  0  0  0  0  0  0
  1  6  2  0  0  0  0 
  2  7  2  0  0  0  0 
  3  4  1  0  0  0  0 
  3  6  1  0  0  0  0 
  3 10  1  0  0  0  0 
  4  7  1  0  0  0  0 
  4  9  1  0  0  0  0 
  5  6  1  0  0  0  0 
  5  7  1  0  0  0  0 
  5  8  1  0  0  0  0 
  5 25  1  0  0  0  0 
  8 11  1  0  0  0  0 
  8 26  1  0  0  0  0 
  8 27  1  0  0  0  0 
  9 13  2  0  0  0  0 
  9 15  1  0  0  0  0 
 10 14  2  0  0  0  0 
 10 16  1  0  0  0  0 
 11 12  2  0  0  0  0 
 11 28  1  0  0  0  0 
 12 21  1  0  0  0  0 
 12 22  1  0  0  0  0 
 13 17  1  0  0  0  0 
 13 29  1  0  0  0  0 
 14 18  1  0  0  0  0 
 14 30  1  0  0  0  0 
 15 20  2  0  0  0  0 
 15 31  1  0  0  0  0 
 16 19  2  0  0  0  0 
 16 32  1  0  0  0  0 
 17 24  2  0  0  0  0 
 17 33  1  0  0  0  0 
 18 23  2  0  0  0  0 
 18 34  1  0  0  0  0 
 19 23  1  0  0  0  0 
 19 36  1  0  0  0  0 
 20 24  1  0  0  0  0 
 20 35  1  0  0  0  0 
 21 40  1  0  0  0  0 
 21 41  1  0  0  0  0 
 21 42  1  0  0  0  0 
 22 37  1  0  0  0  0 
 22 38  1  0  0  0  0 
 22 39  1  0  0  0  0 
 23 44  1  0  0  0  0 
 24 43  1  0  0  0  0 
M  END
> <cdk:Title>
35455

> <cdk:Remark>
null

> <PUBCHEM_COMPOUND_CID>
35455

> <PUBCHEM_COMPOUND_CANONICALIZED>
1

> <PUBCHEM_CACTVS_COMPLEXITY>
462

> <PUBCHEM_CACTVS_HBOND_ACCEPTOR>
2

> <PUBCHEM_CACTVS_HBOND_DONOR>
0

> <PUBCHEM_CACTVS_ROTATABLE_BOND>
4

> <PUBCHEM_CACTVS_SUBSKEYS>
AAADceB7MAAAAAAAAAAAAAAAAAAAAWAAAAAwYAAAAAAAAAABQAAAHgAIAAAADQiBkAAywIIAAACIAiVSUACCBAAhAgAaiAEAZIgIIDrI0ZGEIAhghADIyAcQAAAIAAAAAAAAAAAAAAAAAAAAAAAAAAAAAA==

> <PUBCHEM_IUPAC_OPENEYE_NAME>
4-(3-methylbut-2-enyl)-1,2-diphenyl-pyrazolidine-3,5-dione

> <PUBCHEM_IUPAC_CAS_NAME>
4-(3-methylbut-2-enyl)-1,2-diphenylpyrazolidine-3,5-dione

> <PUBCHEM_IUPAC_NAME>
4-(3-methylbut-2-enyl)-1,2-diphenylpyrazolidine-3,5-dione

> <PUBCHEM_IUPAC_SYSTEMATIC_NAME>
4-(3-methylbut-2-enyl)-1,2-diphenyl-pyrazolidine-3,5-dione

> <PUBCHEM_IUPAC_TRADITIONAL_NAME>
4-(3-methylbut-2-enyl)-1,2-diphenyl-pyrazolidine-3,5-quinone

> <PUBCHEM_IUPAC_INCHI>
InChI=1S/C20H20N2O2/c1-15(2)13-14-18-19(23)21(16-9-5-3-6-10-16)22(20(18)24)17-11-7-4-8-12-17/h3-13,18H,14H2,1-2H3

> <PUBCHEM_IUPAC_INCHIKEY>
RBBWCVQDXDFISW-UHFFFAOYSA-N

> <PUBCHEM_XLOGP3>
3.1

> <PUBCHEM_EXACT_MASS>
320.152478

> <PUBCHEM_MOLECULAR_FORMULA>
C20H20N2O2

> <PUBCHEM_MOLECULAR_WEIGHT>
320.385

> <PUBCHEM_OPENEYE_CAN_SMILES>
CC(=CCC1C(=O)N(N(C1=O)C2=CC=CC=C2)C3=CC=CC=C3)C

> <PUBCHEM_OPENEYE_ISO_SMILES>
CC(=CCC1C(=O)N(N(C1=O)C2=CC=CC=C2)C3=CC=CC=C3)C

> <PUBCHEM_CACTVS_TPSA>
40.6

> <PUBCHEM_MONOISOTOPIC_WEIGHT>
320.152478

> <PUBCHEM_TOTAL_CHARGE>
0

> <PUBCHEM_HEAVY_ATOM_COUNT>
24

> <PUBCHEM_ATOM_DEF_STEREO_COUNT>
0

> <PUBCHEM_ATOM_UDEF_STEREO_COUNT>
0

> <PUBCHEM_BOND_DEF_STEREO_COUNT>
0

> <PUBCHEM_BOND_UDEF_STEREO_COUNT>
0

> <PUBCHEM_ISOTOPIC_ATOM_COUNT>
0

> <PUBCHEM_COMPONENT_COUNT>
1

> <PUBCHEM_CACTVS_TAUTO_COUNT>
2

> <PUBCHEM_COORDINATE_TYPE>
1
5
255

> <PUBCHEM_BONDANNOTATIONS>
10  14  8
10  16  8
13  17  8
14  18  8
15  20  8
16  19  8
17  24  8
18  23  8
19  23  8
20  24  8
9  13  8
9  15  8

> <DRUG_ID>
w115

> <DRUG_NAME>
Feprazone

$$$$
5282459
  CDK     0927151942
null
 61 63  0  0  0  0  0  0  0  0999 V2000
    8.0622    4.1488    0.0000 O   0  0  0  0  0  0  0  0  0  0  0  0
    4.5981    1.1488    0.0000 O   0  0  0  0  0  0  0  0  0  0  0  0
    6.3301   -3.8512    0.0000 O   0  0  0  0  0  0  0  0  0  0  0  0
    2.8660   -3.8512    0.0000 O   0  0  0  0  0  0  0  0  0  0  0  0
    4.5981   -4.8512    0.0000 O   0  0  0  0  0  0  0  0  0  0  0  0
    8.0622    2.1488    0.0000 N   0  0  0  0  0  0  0  0  0  0  0  0
    9.7942    4.1488    0.0000 N   0  0  0  0  0  0  0  0  0  0  0  0
    6.3301    1.1488    0.0000 N   0  0  0  0  0  0  0  0  0  0  0  0
   10.7078    3.7420    0.0000 C   0  0  0  0  0  0  0  0  0  0  0  0
    9.8988    5.1433    0.0000 C   0  0  0  0  0  0  0  0  0  0  0  0
   11.3769    4.4852    0.0000 C   0  0  0  0  0  0  0  0  0  0  0  0
   10.8769    5.3512    0.0000 C   0  0  0  0  0  0  0  0  0  0  0  0
    7.1962    2.6488    0.0000 C   0  0  0  0  0  0  0  0  0  0  0  0
    8.0622    1.1488    0.0000 C   0  0  0  0  0  0  0  0  0  0  0  0
    8.9282    2.6488    0.0000 C   0  0  0  0  0  0  0  0  0  0  0  0
    7.1962    0.6488    0.0000 C   0  0  0  0  0  0  0  0  0  0  0  0
    6.3301    2.1488    0.0000 C   0  0  0  0  0  0  0  0  0  0  0  0
    8.9282    3.6488    0.0000 C   0  0  0  0  0  0  0  0  0  0  0  0
    5.4641    0.6488    0.0000 C   0  0  0  0  0  0  0  0  0  0  0  0
    5.4641   -0.3512    0.0000 C   0  0  0  0  0  0  0  0  0  0  0  0
    4.5981   -0.8512    0.0000 C   0  0  0  0  0  0  0  0  0  0  0  0
    4.5981   -1.8512    0.0000 C   0  0  0  0  0  0  0  0  0  0  0  0
    3.7320   -2.3512    0.0000 C   0  0  0  0  0  0  0  0  0  0  0  0
    5.4641   -2.3512    0.0000 C   0  0  0  0  0  0  0  0  0  0  0  0
    5.4641   -3.3512    0.0000 C   0  0  0  0  0  0  0  0  0  0  0  0
    3.7320   -3.3512    0.0000 C   0  0  0  0  0  0  0  0  0  0  0  0
    4.5981   -3.8512    0.0000 C   0  0  0  0  0  0  0  0  0  0  0  0
    7.1962   -3.3512    0.0000 C   0  0  0  0  0  0  0  0  0  0  0  0
    2.0000   -3.3512    0.0000 C   0  0  0  0  0  0  0  0  0  0  0  0
    3.7320   -5.3512    0.0000 C   0  0  0  0  0  0  0  0  0  0  0  0
   10.3978    3.2051    0.0000 H   0  0  0  0  0  0  0  0  0  0  0  0
   11.2094    3.3776    0.0000 H   0  0  0  0  0  0  0  0  0  0  0  0
    9.8340    5.7599    0.0000 H   0  0  0  0  0  0  0  0  0  0  0  0
    9.2788    5.1433    0.0000 H   0  0  0  0  0  0  0  0  0  0  0  0
   11.7918    4.0244    0.0000 H   0  0  0  0  0  0  0  0  0  0  0  0
   11.8785    4.8496    0.0000 H   0  0  0  0  0  0  0  0  0  0  0  0
   11.4433    5.6034    0.0000 H   0  0  0  0  0  0  0  0  0  0  0  0
   10.6853    5.9409    0.0000 H   0  0  0  0  0  0  0  0  0  0  0  0
    7.5947    3.1237    0.0000 H   0  0  0  0  0  0  0  0  0  0  0  0
    6.7976    3.1237    0.0000 H   0  0  0  0  0  0  0  0  0  0  0  0
    8.2742    0.5662    0.0000 H   0  0  0  0  0  0  0  0  0  0  0  0
    8.6728    1.2564    0.0000 H   0  0  0  0  0  0  0  0  0  0  0  0
    9.1403    2.0662    0.0000 H   0  0  0  0  0  0  0  0  0  0  0  0
    9.5388    2.7564    0.0000 H   0  0  0  0  0  0  0  0  0  0  0  0
    6.1181    2.7314    0.0000 H   0  0  0  0  0  0  0  0  0  0  0  0
    5.7196    2.0411    0.0000 H   0  0  0  0  0  0  0  0  0  0  0  0
    6.7976    0.1738    0.0000 H   0  0  0  0  0  0  0  0  0  0  0  0
    7.5947    0.1738    0.0000 H   0  0  0  0  0  0  0  0  0  0  0  0
    6.0010   -0.6612    0.0000 H   0  0  0  0  0  0  0  0  0  0  0  0
    4.0611   -0.5412    0.0000 H   0  0  0  0  0  0  0  0  0  0  0  0
    3.1951   -2.0412    0.0000 H   0  0  0  0  0  0  0  0  0  0  0  0
    6.0010   -2.0412    0.0000 H   0  0  0  0  0  0  0  0  0  0  0  0
    7.5062   -3.8882    0.0000 H   0  0  0  0  0  0  0  0  0  0  0  0
    7.7331   -3.0412    0.0000 H   0  0  0  0  0  0  0  0  0  0  0  0
    6.8862   -2.8143    0.0000 H   0  0  0  0  0  0  0  0  0  0  0  0
    2.3100   -2.8143    0.0000 H   0  0  0  0  0  0  0  0  0  0  0  0
    1.4631   -3.0412    0.0000 H   0  0  0  0  0  0  0  0  0  0  0  0
    1.6900   -3.8882    0.0000 H   0  0  0  0  0  0  0  0  0  0  0  0
    3.4220   -4.8143    0.0000 H   0  0  0  0  0  0  0  0  0  0  0  0
    3.1951   -5.6612    0.0000 H   0  0  0  0  0  0  0  0  0  0  0  0
    4.0420   -5.8882    0.0000 H   0  0  0  0  0  0  0  0  0  0  0  0
  1 18  2  0  0  0  0 
  2 19  2  0  0  0  0 
  3 25  1  0  0  0  0 
  3 28  1  0  0  0  0 
  4 26  1  0  0  0  0 
  4 29  1  0  0  0  0 
  5 27  1  0  0  0  0 
  5 30  1  0  0  0  0 
  6 13  1  0  0  0  0 
  6 14  1  0  0  0  0 
  6 15  1  0  0  0  0 
  7  9  1  0  0  0  0 
  7 10  1  0  0  0  0 
  7 18  1  0  0  0  0 
  8 16  1  0  0  0  0 
  8 17  1  0  0  0  0 
  8 19  1  0  0  0  0 
  9 11  1  0  0  0  0 
  9 31  1  0  0  0  0 
  9 32  1  0  0  0  0 
 10 12  1  0  0  0  0 
 10 33  1  0  0  0  0 
 10 34  1  0  0  0  0 
 11 12  1  0  0  0  0 
 11 35  1  0  0  0  0 
 11 36  1  0  0  0  0 
 12 37  1  0  0  0  0 
 12 38  1  0  0  0  0 
 13 17  1  0  0  0  0 
 13 39  1  0  0  0  0 
 13 40  1  0  0  0  0 
 14 16  1  0  0  0  0 
 14 41  1  0  0  0  0 
 14 42  1  0  0  0  0 
 15 18  1  0  0  0  0 
 15 43  1  0  0  0  0 
 15 44  1  0  0  0  0 
 16 47  1  0  0  0  0 
 16 48  1  0  0  0  0 
 17 45  1  0  0  0  0 
 17 46  1  0  0  0  0 
 19 20  1  0  0  0  0 
 20 21  2  0  0  0  0 
 20 49  1  0  0  0  0 
 21 22  1  0  0  0  0 
 21 50  1  0  0  0  0 
 22 23  2  0  0  0  0 
 22 24  1  0  0  0  0 
 23 26  1  0  0  0  0 
 23 51  1  0  0  0  0 
 24 25  2  0  0  0  0 
 24 52  1  0  0  0  0 
 25 27  1  0  0  0  0 
 26 27  2  0  0  0  0 
 28 53  1  0  0  0  0 
 28 54  1  0  0  0  0 
 28 55  1  0  0  0  0 
 29 56  1  0  0  0  0 
 29 57  1  0  0  0  0 
 29 58  1  0  0  0  0 
 30 59  1  0  0  0  0 
 30 60  1  0  0  0  0 
 30 61  1  0  0  0  0 
M  END
> <cdk:Title>
5282459

> <cdk:Remark>
null

> <PUBCHEM_COMPOUND_CID>
5282459

> <PUBCHEM_COMPOUND_CANONICALIZED>
1

> <PUBCHEM_CACTVS_COMPLEXITY>
586

> <PUBCHEM_CACTVS_HBOND_ACCEPTOR>
6

> <PUBCHEM_CACTVS_HBOND_DONOR>
0

> <PUBCHEM_CACTVS_ROTATABLE_BOND>
7

> <PUBCHEM_CACTVS_SUBSKEYS>
AAADceB7OAAAAAAAAAAAAAAAAAAAAWAAAAA8QAAAAAAAAAABAAAAHgAAAAAADATBmAYyBoMABACIAiFSEACCCAAgIAAIiACOiMgNZyKEsTqUMCIlxhWKqYeA4BwOIAABCAAAQABAAAIQAACAAAAAAAAAAA==

> <PUBCHEM_IUPAC_OPENEYE_NAME>
(E)-1-[4-(2-oxo-2-pyrrolidin-1-yl-ethyl)piperazin-1-yl]-3-(3,4,5-trimethoxyphenyl)prop-2-en-1-one

> <PUBCHEM_IUPAC_CAS_NAME>
(E)-1-[4-[2-oxo-2-(1-pyrrolidinyl)ethyl]-1-piperazinyl]-3-(3,4,5-trimethoxyphenyl)-2-propen-1-one

> <PUBCHEM_IUPAC_NAME>
(E)-1-[4-(2-oxo-2-pyrrolidin-1-ylethyl)piperazin-1-yl]-3-(3,4,5-trimethoxyphenyl)prop-2-en-1-one

> <PUBCHEM_IUPAC_SYSTEMATIC_NAME>
(E)-1-[4-(2-oxidanylidene-2-pyrrolidin-1-yl-ethyl)piperazin-1-yl]-3-(3,4,5-trimethoxyphenyl)prop-2-en-1-one

> <PUBCHEM_IUPAC_TRADITIONAL_NAME>
(E)-1-[4-(2-keto-2-pyrrolidino-ethyl)piperazino]-3-(3,4,5-trimethoxyphenyl)prop-2-en-1-one

> <PUBCHEM_IUPAC_INCHI>
InChI=1S/C22H31N3O5/c1-28-18-14-17(15-19(29-2)22(18)30-3)6-7-20(26)25-12-10-23(11-13-25)16-21(27)24-8-4-5-9-24/h6-7,14-15H,4-5,8-13,16H2,1-3H3/b7-6+

> <PUBCHEM_IUPAC_INCHIKEY>
RCUDFXMNPQNBDU-VOTSOKGWSA-N

> <PUBCHEM_XLOGP3_AA>
1.5

> <PUBCHEM_EXACT_MASS>
417.226371

> <PUBCHEM_MOLECULAR_FORMULA>
C22H31N3O5

> <PUBCHEM_MOLECULAR_WEIGHT>
417.49864

> <PUBCHEM_OPENEYE_CAN_SMILES>
COC1=CC(=CC(=C1OC)OC)C=CC(=O)N2CCN(CC2)CC(=O)N3CCCC3

> <PUBCHEM_OPENEYE_ISO_SMILES>
COC1=CC(=CC(=C1OC)OC)/C=C/C(=O)N2CCN(CC2)CC(=O)N3CCCC3

> <PUBCHEM_CACTVS_TPSA>
71.6

> <PUBCHEM_MONOISOTOPIC_WEIGHT>
417.226371

> <PUBCHEM_TOTAL_CHARGE>
0

> <PUBCHEM_HEAVY_ATOM_COUNT>
30

> <PUBCHEM_ATOM_DEF_STEREO_COUNT>
0

> <PUBCHEM_ATOM_UDEF_STEREO_COUNT>
0

> <PUBCHEM_BOND_DEF_STEREO_COUNT>
1

> <PUBCHEM_BOND_UDEF_STEREO_COUNT>
0

> <PUBCHEM_ISOTOPIC_ATOM_COUNT>
0

> <PUBCHEM_COMPONENT_COUNT>
1

> <PUBCHEM_CACTVS_TAUTO_COUNT>
1

> <PUBCHEM_COORDINATE_TYPE>
1
5
255

> <PUBCHEM_BONDANNOTATIONS>
22  23  8
22  24  8
23  26  8
24  25  8
25  27  8
26  27  8

> <DRUG_ID>
w116

> <DRUG_NAME>
Cinepazide

$$$$
3955
  CDK     0927151942
null
 67 70  0  0  0  0  0  0  0  0999 V2000
    7.8660    5.4820    0.0000 Cl  0  0  0  0  0  0  0  0  0  0  0  0
    5.3660    2.8840    0.0000 O   0  0  0  0  0  0  0  0  0  0  0  0
    6.5000   -1.6160    0.0000 O   0  0  0  0  0  0  0  0  0  0  0  0
    5.8660    0.0179    0.0000 N   0  0  0  0  0  0  0  0  0  0  0  0
    6.9397   -2.8241    0.0000 N   0  0  0  0  0  0  0  0  0  0  0  0
    5.8660    2.0180    0.0000 C   0  0  0  0  0  0  0  0  0  0  0  0
    6.7320    1.5180    0.0000 C   0  0  0  0  0  0  0  0  0  0  0  0
    5.0000    1.5180    0.0000 C   0  0  0  0  0  0  0  0  0  0  0  0
    6.7320    0.5179    0.0000 C   0  0  0  0  0  0  0  0  0  0  0  0
    5.0000    0.5179    0.0000 C   0  0  0  0  0  0  0  0  0  0  0  0
    5.8660   -0.9821    0.0000 C   0  0  0  0  0  0  0  0  0  0  0  0
    5.0000   -1.4820    0.0000 C   0  0  0  0  0  0  0  0  0  0  0  0
    5.0000   -2.4820    0.0000 C   0  0  0  0  0  0  0  0  0  0  0  0
    6.3660    2.8840    0.0000 C   0  0  0  0  0  0  0  0  0  0  0  0
    5.0000   -3.4820    0.0000 C   0  0  0  0  0  0  0  0  0  0  0  0
    4.0000   -2.4820    0.0000 C   0  0  0  0  0  0  0  0  0  0  0  0
    6.0000   -2.4820    0.0000 C   0  0  0  0  0  0  0  0  0  0  0  0
    7.3660    2.8840    0.0000 C   0  0  0  0  0  0  0  0  0  0  0  0
    5.8660    3.7500    0.0000 C   0  0  0  0  0  0  0  0  0  0  0  0
    5.8660   -3.9820    0.0000 C   0  0  0  0  0  0  0  0  0  0  0  0
    3.5000   -1.6160    0.0000 C   0  0  0  0  0  0  0  0  0  0  0  0
    4.1340   -3.9820    0.0000 C   0  0  0  0  0  0  0  0  0  0  0  0
    3.5000   -3.3481    0.0000 C   0  0  0  0  0  0  0  0  0  0  0  0
    7.8660    3.7500    0.0000 C   0  0  0  0  0  0  0  0  0  0  0  0
    6.3660    4.6160    0.0000 C   0  0  0  0  0  0  0  0  0  0  0  0
    7.3660    4.6160    0.0000 C   0  0  0  0  0  0  0  0  0  0  0  0
    5.8660   -4.9820    0.0000 C   0  0  0  0  0  0  0  0  0  0  0  0
    2.5000   -1.6160    0.0000 C   0  0  0  0  0  0  0  0  0  0  0  0
    4.1340   -4.9820    0.0000 C   0  0  0  0  0  0  0  0  0  0  0  0
    2.5000   -3.3481    0.0000 C   0  0  0  0  0  0  0  0  0  0  0  0
    7.7057   -2.1813    0.0000 C   0  0  0  0  0  0  0  0  0  0  0  0
    7.1134   -3.8088    0.0000 C   0  0  0  0  0  0  0  0  0  0  0  0
    2.0000   -2.4820    0.0000 C   0  0  0  0  0  0  0  0  0  0  0  0
    5.0000   -5.4820    0.0000 C   0  0  0  0  0  0  0  0  0  0  0  0
    4.7880    2.1006    0.0000 H   0  0  0  0  0  0  0  0  0  0  0  0
    4.3894    1.4103    0.0000 H   0  0  0  0  0  0  0  0  0  0  0  0
    7.3426    1.4103    0.0000 H   0  0  0  0  0  0  0  0  0  0  0  0
    6.9441    2.1006    0.0000 H   0  0  0  0  0  0  0  0  0  0  0  0
    6.9441   -0.0647    0.0000 H   0  0  0  0  0  0  0  0  0  0  0  0
    7.3426    0.6256    0.0000 H   0  0  0  0  0  0  0  0  0  0  0  0
    4.3894    0.6256    0.0000 H   0  0  0  0  0  0  0  0  0  0  0  0
    4.7880   -0.0647    0.0000 H   0  0  0  0  0  0  0  0  0  0  0  0
    6.0781   -1.5647    0.0000 H   0  0  0  0  0  0  0  0  0  0  0  0
    6.4766   -0.8744    0.0000 H   0  0  0  0  0  0  0  0  0  0  0  0
    4.7880   -0.8994    0.0000 H   0  0  0  0  0  0  0  0  0  0  0  0
    4.3894   -1.5897    0.0000 H   0  0  0  0  0  0  0  0  0  0  0  0
    4.7460    2.8840    0.0000 H   0  0  0  0  0  0  0  0  0  0  0  0
    7.6760    2.3470    0.0000 H   0  0  0  0  0  0  0  0  0  0  0  0
    5.2460    3.7500    0.0000 H   0  0  0  0  0  0  0  0  0  0  0  0
    6.4030   -3.6720    0.0000 H   0  0  0  0  0  0  0  0  0  0  0  0
    3.8100   -1.0791    0.0000 H   0  0  0  0  0  0  0  0  0  0  0  0
    3.5970   -3.6720    0.0000 H   0  0  0  0  0  0  0  0  0  0  0  0
    3.8100   -3.8850    0.0000 H   0  0  0  0  0  0  0  0  0  0  0  0
    8.4860    3.7500    0.0000 H   0  0  0  0  0  0  0  0  0  0  0  0
    6.0560    5.1530    0.0000 H   0  0  0  0  0  0  0  0  0  0  0  0
    6.4030   -5.2920    0.0000 H   0  0  0  0  0  0  0  0  0  0  0  0
    2.1900   -1.0791    0.0000 H   0  0  0  0  0  0  0  0  0  0  0  0
    3.5970   -5.2920    0.0000 H   0  0  0  0  0  0  0  0  0  0  0  0
    2.1900   -3.8850    0.0000 H   0  0  0  0  0  0  0  0  0  0  0  0
    8.1043   -2.6562    0.0000 H   0  0  0  0  0  0  0  0  0  0  0  0
    8.1807   -1.7828    0.0000 H   0  0  0  0  0  0  0  0  0  0  0  0
    7.3072   -1.7063    0.0000 H   0  0  0  0  0  0  0  0  0  0  0  0
    6.5028   -3.9165    0.0000 H   0  0  0  0  0  0  0  0  0  0  0  0
    7.2211   -4.4194    0.0000 H   0  0  0  0  0  0  0  0  0  0  0  0
    7.7240   -3.7011    0.0000 H   0  0  0  0  0  0  0  0  0  0  0  0
    1.3800   -2.4820    0.0000 H   0  0  0  0  0  0  0  0  0  0  0  0
    5.0000   -6.1020    0.0000 H   0  0  0  0  0  0  0  0  0  0  0  0
  1 26  1  0  0  0  0 
  2  6  1  0  0  0  0 
  2 47  1  0  0  0  0 
  3 17  2  0  0  0  0 
  4  9  1  0  0  0  0 
  4 10  1  0  0  0  0 
  4 11  1  0  0  0  0 
  5 17  1  0  0  0  0 
  5 31  1  0  0  0  0 
  5 32  1  0  0  0  0 
  6  7  1  0  0  0  0 
  6  8  1  0  0  0  0 
  6 14  1  0  0  0  0 
  7  9  1  0  0  0  0 
  7 37  1  0  0  0  0 
  7 38  1  0  0  0  0 
  8 10  1  0  0  0  0 
  8 35  1  0  0  0  0 
  8 36  1  0  0  0  0 
  9 39  1  0  0  0  0 
  9 40  1  0  0  0  0 
 10 41  1  0  0  0  0 
 10 42  1  0  0  0  0 
 11 12  1  0  0  0  0 
 11 43  1  0  0  0  0 
 11 44  1  0  0  0  0 
 12 13  1  0  0  0  0 
 12 45  1  0  0  0  0 
 12 46  1  0  0  0  0 
 13 15  1  0  0  0  0 
 13 16  1  0  0  0  0 
 13 17  1  0  0  0  0 
 14 18  2  0  0  0  0 
 14 19  1  0  0  0  0 
 15 20  2  0  0  0  0 
 15 22  1  0  0  0  0 
 16 21  2  0  0  0  0 
 16 23  1  0  0  0  0 
 18 24  1  0  0  0  0 
 18 48  1  0  0  0  0 
 19 25  2  0  0  0  0 
 19 49  1  0  0  0  0 
 20 27  1  0  0  0  0 
 20 50  1  0  0  0  0 
 21 28  1  0  0  0  0 
 21 51  1  0  0  0  0 
 22 29  2  0  0  0  0 
 22 52  1  0  0  0  0 
 23 30  2  0  0  0  0 
 23 53  1  0  0  0  0 
 24 26  2  0  0  0  0 
 24 54  1  0  0  0  0 
 25 26  1  0  0  0  0 
 25 55  1  0  0  0  0 
 27 34  2  0  0  0  0 
 27 56  1  0  0  0  0 
 28 33  2  0  0  0  0 
 28 57  1  0  0  0  0 
 29 34  1  0  0  0  0 
 29 58  1  0  0  0  0 
 30 33  1  0  0  0  0 
 30 59  1  0  0  0  0 
 31 60  1  0  0  0  0 
 31 61  1  0  0  0  0 
 31 62  1  0  0  0  0 
 32 63  1  0  0  0  0 
 32 64  1  0  0  0  0 
 32 65  1  0  0  0  0 
 33 66  1  0  0  0  0 
 34 67  1  0  0  0  0 
M  END
> <cdk:Title>
3955

> <cdk:Remark>
null

> <PUBCHEM_COMPOUND_CID>
3955

> <PUBCHEM_COMPOUND_CANONICALIZED>
1

> <PUBCHEM_CACTVS_COMPLEXITY>
623

> <PUBCHEM_CACTVS_HBOND_ACCEPTOR>
3

> <PUBCHEM_CACTVS_HBOND_DONOR>
1

> <PUBCHEM_CACTVS_ROTATABLE_BOND>
7

> <PUBCHEM_CACTVS_SUBSKEYS>
AAADcfB7MAAEAAAAAAAAAAAAAAAAAAAAAAA8YMEAAAAAAAABUAAAHgIACAAADkbBmCQyAIMAAgCIAiFSEAACAAAgBQAIiAEICogIJjKBlxGEcAAmwgGImAecyOCPhAAAAAAAAAAIAAAAAAAAAAAAAAAAAA==

> <PUBCHEM_IUPAC_OPENEYE_NAME>
4-[4-(4-chlorophenyl)-4-hydroxy-1-piperidyl]-N,N-dimethyl-2,2-diphenyl-butanamide

> <PUBCHEM_IUPAC_CAS_NAME>
4-[4-(4-chlorophenyl)-4-hydroxy-1-piperidinyl]-N,N-dimethyl-2,2-diphenylbutanamide

> <PUBCHEM_IUPAC_NAME>
4-[4-(4-chlorophenyl)-4-hydroxypiperidin-1-yl]-N,N-dimethyl-2,2-diphenylbutanamide

> <PUBCHEM_IUPAC_SYSTEMATIC_NAME>
4-[4-(4-chlorophenyl)-4-oxidanyl-piperidin-1-yl]-N,N-dimethyl-2,2-diphenyl-butanamide

> <PUBCHEM_IUPAC_TRADITIONAL_NAME>
4-[4-(4-chlorophenyl)-4-hydroxy-piperidino]-N,N-dimethyl-2,2-diphenyl-butyramide

> <PUBCHEM_IUPAC_INCHI>
InChI=1S/C29H33ClN2O2/c1-31(2)27(33)29(24-9-5-3-6-10-24,25-11-7-4-8-12-25)19-22-32-20-17-28(34,18-21-32)23-13-15-26(30)16-14-23/h3-16,34H,17-22H2,1-2H3

> <PUBCHEM_IUPAC_INCHIKEY>
RDOIQAHITMMDAJ-UHFFFAOYSA-N

> <PUBCHEM_XLOGP3_AA>
5

> <PUBCHEM_EXACT_MASS>
476.223056

> <PUBCHEM_MOLECULAR_FORMULA>
C29H33ClN2O2

> <PUBCHEM_MOLECULAR_WEIGHT>
477.03752

> <PUBCHEM_OPENEYE_CAN_SMILES>
CN(C)C(=O)C(CCN1CCC(CC1)(C2=CC=C(C=C2)Cl)O)(C3=CC=CC=C3)C4=CC=CC=C4

> <PUBCHEM_OPENEYE_ISO_SMILES>
CN(C)C(=O)C(CCN1CCC(CC1)(C2=CC=C(C=C2)Cl)O)(C3=CC=CC=C3)C4=CC=CC=C4

> <PUBCHEM_CACTVS_TPSA>
43.8

> <PUBCHEM_MONOISOTOPIC_WEIGHT>
476.223056

> <PUBCHEM_TOTAL_CHARGE>
0

> <PUBCHEM_HEAVY_ATOM_COUNT>
34

> <PUBCHEM_ATOM_DEF_STEREO_COUNT>
0

> <PUBCHEM_ATOM_UDEF_STEREO_COUNT>
0

> <PUBCHEM_BOND_DEF_STEREO_COUNT>
0

> <PUBCHEM_BOND_UDEF_STEREO_COUNT>
0

> <PUBCHEM_ISOTOPIC_ATOM_COUNT>
0

> <PUBCHEM_COMPONENT_COUNT>
1

> <PUBCHEM_CACTVS_TAUTO_COUNT>
1

> <PUBCHEM_COORDINATE_TYPE>
1
5
255

> <PUBCHEM_BONDANNOTATIONS>
14  18  8
14  19  8
15  20  8
15  22  8
16  21  8
16  23  8
18  24  8
19  25  8
20  27  8
21  28  8
22  29  8
23  30  8
24  26  8
25  26  8
27  34  8
28  33  8
29  34  8
30  33  8

> <DRUG_ID>
w117

> <DRUG_NAME>
Loperamide

$$$$
255968
  CDK     0927151942
null
 34 36  0  0  0  0  0  0  0  0999 V2000
    4.6783   -1.8895    0.0000 O   0  0  0  0  0  0  0  0  0  0  0  0
    4.3211    1.4148    0.0000 O   0  0  0  0  0  0  0  0  0  0  0  0
    8.9030    1.4954    0.0000 O   0  0  0  0  0  0  0  0  0  0  0  0
    4.6783   -0.2800    0.0000 C   0  0  0  0  0  0  0  0  0  0  0  0
    3.7320   -0.5847    0.0000 C   0  0  0  0  0  0  0  0  0  0  0  0
    5.2619   -1.0847    0.0000 C   0  0  0  0  0  0  0  0  0  0  0  0
    3.7320   -1.5847    0.0000 C   0  0  0  0  0  0  0  0  0  0  0  0
    6.2619   -1.0847    0.0000 C   0  0  0  0  0  0  0  0  0  0  0  0
    4.9889    0.6705    0.0000 C   0  0  0  0  0  0  0  0  0  0  0  0
    2.8660   -0.0847    0.0000 C   0  0  0  0  0  0  0  0  0  0  0  0
    2.8660   -2.0847    0.0000 C   0  0  0  0  0  0  0  0  0  0  0  0
    5.9674    0.8767    0.0000 C   0  0  0  0  0  0  0  0  0  0  0  0
    6.7619   -1.9508    0.0000 C   0  0  0  0  0  0  0  0  0  0  0  0
    2.0000   -0.5847    0.0000 C   0  0  0  0  0  0  0  0  0  0  0  0
    2.0000   -1.5847    0.0000 C   0  0  0  0  0  0  0  0  0  0  0  0
    6.6353    0.1324    0.0000 C   0  0  0  0  0  0  0  0  0  0  0  0
    6.2781    1.8273    0.0000 C   0  0  0  0  0  0  0  0  0  0  0  0
    7.6138    0.3387    0.0000 C   0  0  0  0  0  0  0  0  0  0  0  0
    7.2566    2.0335    0.0000 C   0  0  0  0  0  0  0  0  0  0  0  0
    7.9244    1.2892    0.0000 C   0  0  0  0  0  0  0  0  0  0  0  0
    6.8445   -0.8727    0.0000 H   0  0  0  0  0  0  0  0  0  0  0  0
    6.1542   -0.4741    0.0000 H   0  0  0  0  0  0  0  0  0  0  0  0
    2.8660    0.5353    0.0000 H   0  0  0  0  0  0  0  0  0  0  0  0
    2.8660   -2.7047    0.0000 H   0  0  0  0  0  0  0  0  0  0  0  0
    6.2249   -2.2607    0.0000 H   0  0  0  0  0  0  0  0  0  0  0  0
    7.0719   -2.4877    0.0000 H   0  0  0  0  0  0  0  0  0  0  0  0
    7.2988   -1.6408    0.0000 H   0  0  0  0  0  0  0  0  0  0  0  0
    1.4631   -0.2747    0.0000 H   0  0  0  0  0  0  0  0  0  0  0  0
    1.4631   -1.8947    0.0000 H   0  0  0  0  0  0  0  0  0  0  0  0
    6.4427   -0.4569    0.0000 H   0  0  0  0  0  0  0  0  0  0  0  0
    5.8640    2.2887    0.0000 H   0  0  0  0  0  0  0  0  0  0  0  0
    8.0279   -0.1228    0.0000 H   0  0  0  0  0  0  0  0  0  0  0  0
    7.4492    2.6228    0.0000 H   0  0  0  0  0  0  0  0  0  0  0  0
    9.0956    2.0847    0.0000 H   0  0  0  0  0  0  0  0  0  0  0  0
  1  6  1  0  0  0  0 
  1  7  1  0  0  0  0 
  2  9  2  0  0  0  0 
  3 20  1  0  0  0  0 
  3 34  1  0  0  0  0 
  4  5  1  0  0  0  0 
  4  6  2  0  0  0  0 
  4  9  1  0  0  0  0 
  5  7  1  0  0  0  0 
  5 10  2  0  0  0  0 
  6  8  1  0  0  0  0 
  7 11  2  0  0  0  0 
  8 13  1  0  0  0  0 
  8 21  1  0  0  0  0 
  8 22  1  0  0  0  0 
  9 12  1  0  0  0  0 
 10 14  1  0  0  0  0 
 10 23  1  0  0  0  0 
 11 15  1  0  0  0  0 
 11 24  1  0  0  0  0 
 12 16  2  0  0  0  0 
 12 17  1  0  0  0  0 
 13 25  1  0  0  0  0 
 13 26  1  0  0  0  0 
 13 27  1  0  0  0  0 
 14 15  2  0  0  0  0 
 14 28  1  0  0  0  0 
 15 29  1  0  0  0  0 
 16 18  1  0  0  0  0 
 16 30  1  0  0  0  0 
 17 19  2  0  0  0  0 
 17 31  1  0  0  0  0 
 18 20  2  0  0  0  0 
 18 32  1  0  0  0  0 
 19 20  1  0  0  0  0 
 19 33  1  0  0  0  0 
M  END
> <cdk:Title>
255968

> <cdk:Remark>
null

> <PUBCHEM_COMPOUND_CID>
255968

> <PUBCHEM_COMPOUND_CANONICALIZED>
1

> <PUBCHEM_CACTVS_COMPLEXITY>
346

> <PUBCHEM_CACTVS_HBOND_ACCEPTOR>
3

> <PUBCHEM_CACTVS_HBOND_DONOR>
1

> <PUBCHEM_CACTVS_ROTATABLE_BOND>
3

> <PUBCHEM_CACTVS_SUBSKEYS>
AAADccB4MAAAAAAAAAAAAAAAAAAAASAAAAAwYAAAAAAAAEgB9AAAGgAACAAADASAmAAyBsAABkCIAqBSAAACCAAkIAAIiAEGCMgMJjaONRqCeWCk4BEIuYeLzPDOoAAAAAAIAABAAAAAABAAAAAAAAAAAA==

> <PUBCHEM_IUPAC_OPENEYE_NAME>
(2-ethylbenzofuran-3-yl)-(4-hydroxyphenyl)methanone

> <PUBCHEM_IUPAC_CAS_NAME>
(2-ethyl-3-benzofuranyl)-(4-hydroxyphenyl)methanone

> <PUBCHEM_IUPAC_NAME>
(2-ethyl-1-benzofuran-3-yl)-(4-hydroxyphenyl)methanone

> <PUBCHEM_IUPAC_SYSTEMATIC_NAME>
(2-ethyl-1-benzofuran-3-yl)-(4-hydroxyphenyl)methanone

> <PUBCHEM_IUPAC_TRADITIONAL_NAME>
(2-ethylbenzofuran-3-yl)-(4-hydroxyphenyl)methanone

> <PUBCHEM_IUPAC_INCHI>
InChI=1S/C17H14O3/c1-2-14-16(13-5-3-4-6-15(13)20-14)17(19)11-7-9-12(18)10-8-11/h3-10,18H,2H2,1H3

> <PUBCHEM_IUPAC_INCHIKEY>
RFRXIWQYSOIBDI-UHFFFAOYSA-N

> <PUBCHEM_XLOGP3>
4.3

> <PUBCHEM_EXACT_MASS>
266.094294

> <PUBCHEM_MOLECULAR_FORMULA>
C17H14O3

> <PUBCHEM_MOLECULAR_WEIGHT>
266.29126

> <PUBCHEM_OPENEYE_CAN_SMILES>
CCC1=C(C2=CC=CC=C2O1)C(=O)C3=CC=C(C=C3)O

> <PUBCHEM_OPENEYE_ISO_SMILES>
CCC1=C(C2=CC=CC=C2O1)C(=O)C3=CC=C(C=C3)O

> <PUBCHEM_CACTVS_TPSA>
50.4

> <PUBCHEM_MONOISOTOPIC_WEIGHT>
266.094294

> <PUBCHEM_TOTAL_CHARGE>
0

> <PUBCHEM_HEAVY_ATOM_COUNT>
20

> <PUBCHEM_ATOM_DEF_STEREO_COUNT>
0

> <PUBCHEM_ATOM_UDEF_STEREO_COUNT>
0

> <PUBCHEM_BOND_DEF_STEREO_COUNT>
0

> <PUBCHEM_BOND_UDEF_STEREO_COUNT>
0

> <PUBCHEM_ISOTOPIC_ATOM_COUNT>
0

> <PUBCHEM_COMPONENT_COUNT>
1

> <PUBCHEM_CACTVS_TAUTO_COUNT>
4

> <PUBCHEM_COORDINATE_TYPE>
1
5
255

> <PUBCHEM_BONDANNOTATIONS>
1  6  8
1  7  8
10  14  8
11  15  8
12  16  8
12  17  8
14  15  8
16  18  8
17  19  8
18  20  8
19  20  8
4  5  8
4  6  8
5  10  8
5  7  8
7  11  8

> <DRUG_ID>
w118

> <DRUG_NAME>
Benzarone

$$$$
448537
  CDK     0927151942
null
 40 41  0  0  0  0  0  0  0  0999 V2000
    4.5981    4.2500    0.0000 O   0  0  0  0  0  0  0  0  0  0  0  0
    3.7320   -4.2500    0.0000 O   0  0  0  0  0  0  0  0  0  0  0  0
    4.5981    0.2500    0.0000 C   0  0  0  0  0  0  0  0  0  0  0  0
    3.7320   -0.2500    0.0000 C   0  0  0  0  0  0  0  0  0  0  0  0
    5.4641   -0.2500    0.0000 C   0  0  0  0  0  0  0  0  0  0  0  0
    2.8660    0.2500    0.0000 C   0  0  0  0  0  0  0  0  0  0  0  0
    3.7320   -1.2500    0.0000 C   0  0  0  0  0  0  0  0  0  0  0  0
    4.5981    1.2500    0.0000 C   0  0  0  0  0  0  0  0  0  0  0  0
    6.3301    0.2500    0.0000 C   0  0  0  0  0  0  0  0  0  0  0  0
    2.0000   -0.2500    0.0000 C   0  0  0  0  0  0  0  0  0  0  0  0
    5.4641    1.7500    0.0000 C   0  0  0  0  0  0  0  0  0  0  0  0
    2.8660   -1.7500    0.0000 C   0  0  0  0  0  0  0  0  0  0  0  0
    3.7320    1.7500    0.0000 C   0  0  0  0  0  0  0  0  0  0  0  0
    4.5981   -1.7500    0.0000 C   0  0  0  0  0  0  0  0  0  0  0  0
    5.4641    2.7500    0.0000 C   0  0  0  0  0  0  0  0  0  0  0  0
    2.8660   -2.7500    0.0000 C   0  0  0  0  0  0  0  0  0  0  0  0
    3.7320    2.7500    0.0000 C   0  0  0  0  0  0  0  0  0  0  0  0
    4.5981   -2.7500    0.0000 C   0  0  0  0  0  0  0  0  0  0  0  0
    4.5981    3.2500    0.0000 C   0  0  0  0  0  0  0  0  0  0  0  0
    3.7320   -3.2500    0.0000 C   0  0  0  0  0  0  0  0  0  0  0  0
    5.0656   -0.7249    0.0000 H   0  0  0  0  0  0  0  0  0  0  0  0
    5.8626   -0.7249    0.0000 H   0  0  0  0  0  0  0  0  0  0  0  0
    3.2646    0.7249    0.0000 H   0  0  0  0  0  0  0  0  0  0  0  0
    2.4675    0.7249    0.0000 H   0  0  0  0  0  0  0  0  0  0  0  0
    1.6900    0.2869    0.0000 H   0  0  0  0  0  0  0  0  0  0  0  0
    1.4631   -0.5600    0.0000 H   0  0  0  0  0  0  0  0  0  0  0  0
    2.3100   -0.7869    0.0000 H   0  0  0  0  0  0  0  0  0  0  0  0
    6.6401   -0.2869    0.0000 H   0  0  0  0  0  0  0  0  0  0  0  0
    6.8671    0.5600    0.0000 H   0  0  0  0  0  0  0  0  0  0  0  0
    6.0201    0.7869    0.0000 H   0  0  0  0  0  0  0  0  0  0  0  0
    6.0010    1.4400    0.0000 H   0  0  0  0  0  0  0  0  0  0  0  0
    2.3291   -1.4400    0.0000 H   0  0  0  0  0  0  0  0  0  0  0  0
    3.1951    1.4400    0.0000 H   0  0  0  0  0  0  0  0  0  0  0  0
    5.1350   -1.4400    0.0000 H   0  0  0  0  0  0  0  0  0  0  0  0
    6.0010    3.0600    0.0000 H   0  0  0  0  0  0  0  0  0  0  0  0
    2.3291   -3.0600    0.0000 H   0  0  0  0  0  0  0  0  0  0  0  0
    3.1951    3.0600    0.0000 H   0  0  0  0  0  0  0  0  0  0  0  0
    5.1350   -3.0600    0.0000 H   0  0  0  0  0  0  0  0  0  0  0  0
    5.1350    4.5600    0.0000 H   0  0  0  0  0  0  0  0  0  0  0  0
    3.1951   -4.5600    0.0000 H   0  0  0  0  0  0  0  0  0  0  0  0
  1 19  1  0  0  0  0 
  1 39  1  0  0  0  0 
  2 20  1  0  0  0  0 
  2 40  1  0  0  0  0 
  3  4  2  0  0  0  0 
  3  5  1  0  0  0  0 
  3  8  1  0  0  0  0 
  4  6  1  0  0  0  0 
  4  7  1  0  0  0  0 
  5  9  1  0  0  0  0 
  5 21  1  0  0  0  0 
  5 22  1  0  0  0  0 
  6 10  1  0  0  0  0 
  6 23  1  0  0  0  0 
  6 24  1  0  0  0  0 
  7 12  2  0  0  0  0 
  7 14  1  0  0  0  0 
  8 11  2  0  0  0  0 
  8 13  1  0  0  0  0 
  9 28  1  0  0  0  0 
  9 29  1  0  0  0  0 
  9 30  1  0  0  0  0 
 10 25  1  0  0  0  0 
 10 26  1  0  0  0  0 
 10 27  1  0  0  0  0 
 11 15  1  0  0  0  0 
 11 31  1  0  0  0  0 
 12 16  1  0  0  0  0 
 12 32  1  0  0  0  0 
 13 17  2  0  0  0  0 
 13 33  1  0  0  0  0 
 14 18  2  0  0  0  0 
 14 34  1  0  0  0  0 
 15 19  2  0  0  0  0 
 15 35  1  0  0  0  0 
 16 20  2  0  0  0  0 
 16 36  1  0  0  0  0 
 17 19  1  0  0  0  0 
 17 37  1  0  0  0  0 
 18 20  1  0  0  0  0 
 18 38  1  0  0  0  0 
M  END
> <cdk:Title>
448537

> <cdk:Remark>
null

> <PUBCHEM_COMPOUND_CID>
448537

> <PUBCHEM_COMPOUND_CANONICALIZED>
1

> <PUBCHEM_CACTVS_COMPLEXITY>
286

> <PUBCHEM_CACTVS_HBOND_ACCEPTOR>
2

> <PUBCHEM_CACTVS_HBOND_DONOR>
2

> <PUBCHEM_CACTVS_ROTATABLE_BOND>
4

> <PUBCHEM_CACTVS_SUBSKEYS>
AAADceB4MAAAAAAAAAAAAAAAAAAAAAAAAAAwYAAAAAAAAAABQAAAGgAACAAADASAmAAyBoAAAgCAAiBCAAACAAAgIAAIiAAGCIgIJiKCERKAcAAkwBEImAeAwKAOIAAAAAAAAABAAAAAAAAAAAAAAAAAAA==

> <PUBCHEM_IUPAC_OPENEYE_NAME>
4-[(E)-1-ethyl-2-(4-hydroxyphenyl)but-1-enyl]phenol

> <PUBCHEM_IUPAC_CAS_NAME>
4-[(E)-4-(4-hydroxyphenyl)hex-3-en-3-yl]phenol

> <PUBCHEM_IUPAC_NAME>
4-[(E)-4-(4-hydroxyphenyl)hex-3-en-3-yl]phenol

> <PUBCHEM_IUPAC_SYSTEMATIC_NAME>
4-[(E)-4-(4-hydroxyphenyl)hex-3-en-3-yl]phenol

> <PUBCHEM_IUPAC_TRADITIONAL_NAME>
4-[(E)-1-ethyl-2-(4-hydroxyphenyl)but-1-enyl]phenol

> <PUBCHEM_IUPAC_INCHI>
InChI=1S/C18H20O2/c1-3-17(13-5-9-15(19)10-6-13)18(4-2)14-7-11-16(20)12-8-14/h5-12,19-20H,3-4H2,1-2H3/b18-17+

> <PUBCHEM_IUPAC_INCHIKEY>
RGLYKWWBQGJZGM-ISLYRVAYSA-N

> <PUBCHEM_XLOGP3>
5.1

> <PUBCHEM_EXACT_MASS>
268.14633

> <PUBCHEM_MOLECULAR_FORMULA>
C18H20O2

> <PUBCHEM_MOLECULAR_WEIGHT>
268.3502

> <PUBCHEM_OPENEYE_CAN_SMILES>
CCC(=C(CC)C1=CC=C(C=C1)O)C2=CC=C(C=C2)O

> <PUBCHEM_OPENEYE_ISO_SMILES>
CC/C(=C(/CC)\C1=CC=C(C=C1)O)/C2=CC=C(C=C2)O

> <PUBCHEM_CACTVS_TPSA>
40.5

> <PUBCHEM_MONOISOTOPIC_WEIGHT>
268.14633

> <PUBCHEM_TOTAL_CHARGE>
0

> <PUBCHEM_HEAVY_ATOM_COUNT>
20

> <PUBCHEM_ATOM_DEF_STEREO_COUNT>
0

> <PUBCHEM_ATOM_UDEF_STEREO_COUNT>
0

> <PUBCHEM_BOND_DEF_STEREO_COUNT>
1

> <PUBCHEM_BOND_UDEF_STEREO_COUNT>
0

> <PUBCHEM_ISOTOPIC_ATOM_COUNT>
0

> <PUBCHEM_COMPONENT_COUNT>
1

> <PUBCHEM_CACTVS_TAUTO_COUNT>
9

> <PUBCHEM_COORDINATE_TYPE>
1
5
255

> <PUBCHEM_BONDANNOTATIONS>
11  15  8
12  16  8
13  17  8
14  18  8
15  19  8
16  20  8
17  19  8
18  20  8
7  12  8
7  14  8
8  11  8
8  13  8

> <DRUG_ID>
w119

> <DRUG_NAME>
Diethylstilbestrol

$$$$
657255
  CDK     0927151942
null
 58 58  0  0  0  0  0  0  0  0999 V2000
    3.7320   -5.0000    0.0000 S   0  0  0  0  0  0  0  0  0  0  0  0
    2.8660   -0.5000    0.0000 O   0  0  0  0  0  0  0  0  0  0  0  0
    4.5981    0.5000    0.0000 N   0  0  0  0  0  0  0  0  0  0  0  0
    4.5981   -0.5000    0.0000 C   0  0  1  0  0  0  0  0  0  0  0  0
    6.3301    2.5000    0.0000 C   0  0  0  0  0  0  0  0  0  0  0  0
    5.4641    2.0000    0.0000 C   0  0  0  0  0  0  0  0  0  0  0  0
    6.3301    3.5000    0.0000 C   0  0  0  0  0  0  0  0  0  0  0  0
    5.4641    1.0000    0.0000 C   0  0  0  0  0  0  0  0  0  0  0  0
    3.7320   -1.0000    0.0000 C   0  0  2  0  0  0  0  0  0  0  0  0
    7.1962    4.0000    0.0000 C   0  0  0  0  0  0  0  0  0  0  0  0
    7.1962    5.0000    0.0000 C   0  0  0  0  0  0  0  0  0  0  0  0
    5.4641   -1.0000    0.0000 C   0  0  0  0  0  0  0  0  0  0  0  0
    3.7320   -2.0000    0.0000 C   0  0  0  0  0  0  0  0  0  0  0  0
    8.0622    5.5000    0.0000 C   0  0  0  0  0  0  0  0  0  0  0  0
    2.8660   -2.5000    0.0000 C   0  0  0  0  0  0  0  0  0  0  0  0
    4.5981   -2.5000    0.0000 C   0  0  0  0  0  0  0  0  0  0  0  0
    8.0622    6.5000    0.0000 C   0  0  0  0  0  0  0  0  0  0  0  0
    2.8660   -3.5000    0.0000 C   0  0  0  0  0  0  0  0  0  0  0  0
    4.5981   -3.5000    0.0000 C   0  0  0  0  0  0  0  0  0  0  0  0
    3.7320   -4.0000    0.0000 C   0  0  0  0  0  0  0  0  0  0  0  0
    2.8660   -5.5000    0.0000 C   0  0  0  0  0  0  0  0  0  0  0  0
    2.8660   -6.5000    0.0000 C   0  0  0  0  0  0  0  0  0  0  0  0
    2.0000   -5.0000    0.0000 C   0  0  0  0  0  0  0  0  0  0  0  0
    5.1350   -0.1900    0.0000 H   0  0  0  0  0  0  0  0  0  0  0  0
    6.5422    1.9174    0.0000 H   0  0  0  0  0  0  0  0  0  0  0  0
    6.9407    2.6077    0.0000 H   0  0  0  0  0  0  0  0  0  0  0  0
    5.2520    2.5826    0.0000 H   0  0  0  0  0  0  0  0  0  0  0  0
    4.8535    1.8923    0.0000 H   0  0  0  0  0  0  0  0  0  0  0  0
    6.1181    4.0826    0.0000 H   0  0  0  0  0  0  0  0  0  0  0  0
    5.7196    3.3923    0.0000 H   0  0  0  0  0  0  0  0  0  0  0  0
    5.6762    0.4174    0.0000 H   0  0  0  0  0  0  0  0  0  0  0  0
    6.0747    1.1077    0.0000 H   0  0  0  0  0  0  0  0  0  0  0  0
    3.7320   -0.3800    0.0000 H   0  0  0  0  0  0  0  0  0  0  0  0
    7.4082    3.4174    0.0000 H   0  0  0  0  0  0  0  0  0  0  0  0
    7.8067    4.1077    0.0000 H   0  0  0  0  0  0  0  0  0  0  0  0
    4.0611    0.8100    0.0000 H   0  0  0  0  0  0  0  0  0  0  0  0
    6.9841    5.5826    0.0000 H   0  0  0  0  0  0  0  0  0  0  0  0
    6.5856    4.8923    0.0000 H   0  0  0  0  0  0  0  0  0  0  0  0
    5.1541   -1.5369    0.0000 H   0  0  0  0  0  0  0  0  0  0  0  0
    6.0010   -1.3100    0.0000 H   0  0  0  0  0  0  0  0  0  0  0  0
    5.7741   -0.4631    0.0000 H   0  0  0  0  0  0  0  0  0  0  0  0
    8.2742    4.9174    0.0000 H   0  0  0  0  0  0  0  0  0  0  0  0
    8.6728    5.6077    0.0000 H   0  0  0  0  0  0  0  0  0  0  0  0
    2.3291   -2.1900    0.0000 H   0  0  0  0  0  0  0  0  0  0  0  0
    5.1350   -2.1900    0.0000 H   0  0  0  0  0  0  0  0  0  0  0  0
    2.8660    0.1200    0.0000 H   0  0  0  0  0  0  0  0  0  0  0  0
    8.6822    6.5000    0.0000 H   0  0  0  0  0  0  0  0  0  0  0  0
    8.0622    7.1200    0.0000 H   0  0  0  0  0  0  0  0  0  0  0  0
    7.4422    6.5000    0.0000 H   0  0  0  0  0  0  0  0  0  0  0  0
    2.3291   -3.8100    0.0000 H   0  0  0  0  0  0  0  0  0  0  0  0
    5.1350   -3.8100    0.0000 H   0  0  0  0  0  0  0  0  0  0  0  0
    2.8660   -4.8800    0.0000 H   0  0  0  0  0  0  0  0  0  0  0  0
    2.2460   -6.5000    0.0000 H   0  0  0  0  0  0  0  0  0  0  0  0
    2.8660   -7.1200    0.0000 H   0  0  0  0  0  0  0  0  0  0  0  0
    3.4860   -6.5000    0.0000 H   0  0  0  0  0  0  0  0  0  0  0  0
    2.3100   -4.4631    0.0000 H   0  0  0  0  0  0  0  0  0  0  0  0
    1.4631   -4.6900    0.0000 H   0  0  0  0  0  0  0  0  0  0  0  0
    1.6900   -5.5369    0.0000 H   0  0  0  0  0  0  0  0  0  0  0  0
  1 20  1  0  0  0  0 
  1 21  1  0  0  0  0 
  9  2  1  6  0  0  0 
  2 46  1  0  0  0  0 
  4  3  1  6  0  0  0 
  3  8  1  0  0  0  0 
  3 36  1  0  0  0  0 
  4  9  1  0  0  0  0 
  4 12  1  0  0  0  0 
  4 24  1  0  0  0  0 
  5  6  1  0  0  0  0 
  5  7  1  0  0  0  0 
  5 25  1  0  0  0  0 
  5 26  1  0  0  0  0 
  6  8  1  0  0  0  0 
  6 27  1  0  0  0  0 
  6 28  1  0  0  0  0 
  7 10  1  0  0  0  0 
  7 29  1  0  0  0  0 
  7 30  1  0  0  0  0 
  8 31  1  0  0  0  0 
  8 32  1  0  0  0  0 
  9 13  1  0  0  0  0 
  9 33  1  0  0  0  0 
 10 11  1  0  0  0  0 
 10 34  1  0  0  0  0 
 10 35  1  0  0  0  0 
 11 14  1  0  0  0  0 
 11 37  1  0  0  0  0 
 11 38  1  0  0  0  0 
 12 39  1  0  0  0  0 
 12 40  1  0  0  0  0 
 12 41  1  0  0  0  0 
 13 15  2  0  0  0  0 
 13 16  1  0  0  0  0 
 14 17  1  0  0  0  0 
 14 42  1  0  0  0  0 
 14 43  1  0  0  0  0 
 15 18  1  0  0  0  0 
 15 44  1  0  0  0  0 
 16 19  2  0  0  0  0 
 16 45  1  0  0  0  0 
 17 47  1  0  0  0  0 
 17 48  1  0  0  0  0 
 17 49  1  0  0  0  0 
 18 20  2  0  0  0  0 
 18 50  1  0  0  0  0 
 19 20  1  0  0  0  0 
 19 51  1  0  0  0  0 
 21 22  1  0  0  0  0 
 21 23  1  0  0  0  0 
 21 52  1  0  0  0  0 
 22 53  1  0  0  0  0 
 22 54  1  0  0  0  0 
 22 55  1  0  0  0  0 
 23 56  1  0  0  0  0 
 23 57  1  0  0  0  0 
 23 58  1  0  0  0  0 
M  END
> <cdk:Title>
657255

> <cdk:Remark>
null

> <PUBCHEM_COMPOUND_CID>
657255

> <PUBCHEM_COMPOUND_CANONICALIZED>
1

> <PUBCHEM_CACTVS_COMPLEXITY>
277

> <PUBCHEM_CACTVS_HBOND_ACCEPTOR>
3

> <PUBCHEM_CACTVS_HBOND_DONOR>
2

> <PUBCHEM_CACTVS_ROTATABLE_BOND>
12

> <PUBCHEM_CACTVS_SUBSKEYS>
AAADcfB6IABAAAAAAAAAAAAAAAAAAAAAAAAwAAAAAAAAAAABAAAAHgQQCAAADDzl2AayAYLAAgiAAiBCAAACAAAgCBAIiJgICIgKNiKgkRGEcAAk0AG4mAeQwKAOEAAAAAAAAAAgAAAAAAAAAAAAAAAAAA==

> <PUBCHEM_IUPAC_OPENEYE_NAME>
(1S,2R)-1-(4-isopropylsulfanylphenyl)-2-(octylamino)propan-1-ol

> <PUBCHEM_IUPAC_CAS_NAME>
(1S,2R)-2-(octylamino)-1-[4-(propan-2-ylthio)phenyl]-1-propanol

> <PUBCHEM_IUPAC_NAME>
(1S,2R)-2-(octylamino)-1-(4-propan-2-ylsulfanylphenyl)propan-1-ol

> <PUBCHEM_IUPAC_SYSTEMATIC_NAME>
(1S,2R)-2-(octylamino)-1-(4-propan-2-ylsulfanylphenyl)propan-1-ol

> <PUBCHEM_IUPAC_TRADITIONAL_NAME>
(1S,2R)-1-[4-(isopropylthio)phenyl]-2-(octylamino)propan-1-ol

> <PUBCHEM_IUPAC_INCHI>
InChI=1S/C20H35NOS/c1-5-6-7-8-9-10-15-21-17(4)20(22)18-11-13-19(14-12-18)23-16(2)3/h11-14,16-17,20-22H,5-10,15H2,1-4H3/t17-,20-/m1/s1

> <PUBCHEM_IUPAC_INCHIKEY>
BFCDFTHTSVTWOG-YLJYHZDGSA-N

> <PUBCHEM_XLOGP3_AA>
5.8

> <PUBCHEM_EXACT_MASS>
337.243936

> <PUBCHEM_MOLECULAR_FORMULA>
C20H35NOS

> <PUBCHEM_MOLECULAR_WEIGHT>
337.563

> <PUBCHEM_OPENEYE_CAN_SMILES>
CCCCCCCCNC(C)C(C1=CC=C(C=C1)SC(C)C)O

> <PUBCHEM_OPENEYE_ISO_SMILES>
CCCCCCCCN[C@H](C)[C@H](C1=CC=C(C=C1)SC(C)C)O

> <PUBCHEM_CACTVS_TPSA>
57.6

> <PUBCHEM_MONOISOTOPIC_WEIGHT>
337.243936

> <PUBCHEM_TOTAL_CHARGE>
0

> <PUBCHEM_HEAVY_ATOM_COUNT>
23

> <PUBCHEM_ATOM_DEF_STEREO_COUNT>
2

> <PUBCHEM_ATOM_UDEF_STEREO_COUNT>
0

> <PUBCHEM_BOND_DEF_STEREO_COUNT>
0

> <PUBCHEM_BOND_UDEF_STEREO_COUNT>
0

> <PUBCHEM_ISOTOPIC_ATOM_COUNT>
0

> <PUBCHEM_COMPONENT_COUNT>
1

> <PUBCHEM_CACTVS_TAUTO_COUNT>
1

> <PUBCHEM_COORDINATE_TYPE>
1
5
255

> <PUBCHEM_BONDANNOTATIONS>
13  15  8
13  16  8
15  18  8
16  19  8
18  20  8
19  20  8
9  2  6
4  3  6

> <DRUG_ID>
w12

> <DRUG_NAME>
Suloctidil

$$$$
3718
  CDK     0927151942
null
 36 38  0  0  0  0  0  0  0  0999 V2000
    4.9889    1.7436    0.0000 O   0  0  0  0  0  0  0  0  0  0  0  0
   10.7619   -0.8776    0.0000 O   0  0  0  0  0  0  0  0  0  0  0  0
    9.2619   -1.7436    0.0000 O   0  0  0  0  0  0  0  0  0  0  0  0
    5.2619   -0.0116    0.0000 N   0  0  0  0  0  0  0  0  0  0  0  0
    4.6783   -0.8163    0.0000 C   0  0  0  0  0  0  0  0  0  0  0  0
    3.7320   -0.5116    0.0000 C   0  0  0  0  0  0  0  0  0  0  0  0
    3.7320    0.4884    0.0000 C   0  0  0  0  0  0  0  0  0  0  0  0
    6.2619   -0.0116    0.0000 C   0  0  0  0  0  0  0  0  0  0  0  0
    4.6783    0.7931    0.0000 C   0  0  0  0  0  0  0  0  0  0  0  0
    8.2619   -0.0116    0.0000 C   0  0  0  0  0  0  0  0  0  0  0  0
    9.2619   -0.0116    0.0000 C   0  0  3  0  0  0  0  0  0  0  0  0
    6.7619   -0.8776    0.0000 C   0  0  0  0  0  0  0  0  0  0  0  0
    6.7619    0.8544    0.0000 C   0  0  0  0  0  0  0  0  0  0  0  0
    2.8660   -1.0116    0.0000 C   0  0  0  0  0  0  0  0  0  0  0  0
    7.7619   -0.8776    0.0000 C   0  0  0  0  0  0  0  0  0  0  0  0
    7.7619    0.8544    0.0000 C   0  0  0  0  0  0  0  0  0  0  0  0
    2.8660    0.9884    0.0000 C   0  0  0  0  0  0  0  0  0  0  0  0
    2.0000   -0.5116    0.0000 C   0  0  0  0  0  0  0  0  0  0  0  0
    2.0000    0.4884    0.0000 C   0  0  0  0  0  0  0  0  0  0  0  0
    9.7619    0.8544    0.0000 C   0  0  0  0  0  0  0  0  0  0  0  0
    9.7619   -0.8776    0.0000 C   0  0  0  0  0  0  0  0  0  0  0  0
    4.4272   -1.3832    0.0000 H   0  0  0  0  0  0  0  0  0  0  0  0
    5.2156   -1.1256    0.0000 H   0  0  0  0  0  0  0  0  0  0  0  0
    8.9519    0.5253    0.0000 H   0  0  0  0  0  0  0  0  0  0  0  0
    6.4519   -1.4146    0.0000 H   0  0  0  0  0  0  0  0  0  0  0  0
    6.4519    1.3914    0.0000 H   0  0  0  0  0  0  0  0  0  0  0  0
    2.8660   -1.6316    0.0000 H   0  0  0  0  0  0  0  0  0  0  0  0
    8.0719   -1.4146    0.0000 H   0  0  0  0  0  0  0  0  0  0  0  0
    8.0719    1.3914    0.0000 H   0  0  0  0  0  0  0  0  0  0  0  0
    2.8660    1.6084    0.0000 H   0  0  0  0  0  0  0  0  0  0  0  0
    1.4631   -0.8216    0.0000 H   0  0  0  0  0  0  0  0  0  0  0  0
    1.4631    0.7984    0.0000 H   0  0  0  0  0  0  0  0  0  0  0  0
   10.2988    0.5444    0.0000 H   0  0  0  0  0  0  0  0  0  0  0  0
   10.0719    1.3914    0.0000 H   0  0  0  0  0  0  0  0  0  0  0  0
    9.2249    1.1644    0.0000 H   0  0  0  0  0  0  0  0  0  0  0  0
   11.0719   -1.4146    0.0000 H   0  0  0  0  0  0  0  0  0  0  0  0
  1  9  2  0  0  0  0 
  2 21  1  0  0  0  0 
  2 36  1  0  0  0  0 
  3 21  2  0  0  0  0 
  4  5  1  0  0  0  0 
  4  8  1  0  0  0  0 
  4  9  1  0  0  0  0 
  5  6  1  0  0  0  0 
  5 22  1  0  0  0  0 
  5 23  1  0  0  0  0 
  6  7  1  0  0  0  0 
  6 14  2  0  0  0  0 
  7  9  1  0  0  0  0 
  7 17  2  0  0  0  0 
  8 12  2  0  0  0  0 
  8 13  1  0  0  0  0 
 10 11  1  0  0  0  0 
 10 15  2  0  0  0  0 
 10 16  1  0  0  0  0 
 11 20  1  0  0  0  0 
 11 21  1  0  0  0  0 
 11 24  1  0  0  0  0 
 12 15  1  0  0  0  0 
 12 25  1  0  0  0  0 
 13 16  2  0  0  0  0 
 13 26  1  0  0  0  0 
 14 18  1  0  0  0  0 
 14 27  1  0  0  0  0 
 15 28  1  0  0  0  0 
 16 29  1  0  0  0  0 
 17 19  1  0  0  0  0 
 17 30  1  0  0  0  0 
 18 19  2  0  0  0  0 
 18 31  1  0  0  0  0 
 19 32  1  0  0  0  0 
 20 33  1  0  0  0  0 
 20 34  1  0  0  0  0 
 20 35  1  0  0  0  0 
M  END
> <cdk:Title>
3718

> <cdk:Remark>
null

> <PUBCHEM_COMPOUND_CID>
3718

> <PUBCHEM_COMPOUND_CANONICALIZED>
1

> <PUBCHEM_CACTVS_COMPLEXITY>
414

> <PUBCHEM_CACTVS_HBOND_ACCEPTOR>
3

> <PUBCHEM_CACTVS_HBOND_DONOR>
1

> <PUBCHEM_CACTVS_ROTATABLE_BOND>
3

> <PUBCHEM_CACTVS_SUBSKEYS>
AAADccB6MAAAAAAAAAAAAAAAAAAAAWAAAAAwYAAAAAAAAFgBQAAAHgAACAAADQjBmAQyyIMAAgCIAiXSWACCAAAlAgAIiAEIZMgIIDLAlZGEYQhkxgHIyYecyOCOiAAAAAAQAAAQAAAAACAAAAAAAAAAAA==

> <PUBCHEM_IUPAC_OPENEYE_NAME>
2-[4-(1-oxoisoindolin-2-yl)phenyl]propanoic acid

> <PUBCHEM_IUPAC_CAS_NAME>
2-[4-(3-oxo-1H-isoindol-2-yl)phenyl]propanoic acid

> <PUBCHEM_IUPAC_NAME>
2-[4-(3-oxo-1H-isoindol-2-yl)phenyl]propanoic acid

> <PUBCHEM_IUPAC_SYSTEMATIC_NAME>
2-[4-(3-oxidanylidene-1H-isoindol-2-yl)phenyl]propanoic acid

> <PUBCHEM_IUPAC_TRADITIONAL_NAME>
2-[4-(1-ketoisoindolin-2-yl)phenyl]propionic acid

> <PUBCHEM_IUPAC_INCHI>
InChI=1S/C17H15NO3/c1-11(17(20)21)12-6-8-14(9-7-12)18-10-13-4-2-3-5-15(13)16(18)19/h2-9,11H,10H2,1H3,(H,20,21)

> <PUBCHEM_IUPAC_INCHIKEY>
RJMIEHBSYVWVIN-UHFFFAOYSA-N

> <PUBCHEM_XLOGP3>
2.8

> <PUBCHEM_EXACT_MASS>
281.105193

> <PUBCHEM_MOLECULAR_FORMULA>
C17H15NO3

> <PUBCHEM_MOLECULAR_WEIGHT>
281.3059

> <PUBCHEM_OPENEYE_CAN_SMILES>
CC(C1=CC=C(C=C1)N2CC3=CC=CC=C3C2=O)C(=O)O

> <PUBCHEM_OPENEYE_ISO_SMILES>
CC(C1=CC=C(C=C1)N2CC3=CC=CC=C3C2=O)C(=O)O

> <PUBCHEM_CACTVS_TPSA>
57.6

> <PUBCHEM_MONOISOTOPIC_WEIGHT>
281.105193

> <PUBCHEM_TOTAL_CHARGE>
0

> <PUBCHEM_HEAVY_ATOM_COUNT>
21

> <PUBCHEM_ATOM_DEF_STEREO_COUNT>
0

> <PUBCHEM_ATOM_UDEF_STEREO_COUNT>
1

> <PUBCHEM_BOND_DEF_STEREO_COUNT>
0

> <PUBCHEM_BOND_UDEF_STEREO_COUNT>
0

> <PUBCHEM_ISOTOPIC_ATOM_COUNT>
0

> <PUBCHEM_COMPONENT_COUNT>
1

> <PUBCHEM_CACTVS_TAUTO_COUNT>
1

> <PUBCHEM_COORDINATE_TYPE>
1
5
255

> <PUBCHEM_BONDANNOTATIONS>
10  15  8
10  16  8
11  20  3
12  15  8
13  16  8
14  18  8
17  19  8
18  19  8
6  14  8
6  7  8
7  17  8
8  12  8
8  13  8

> <DRUG_ID>
w120

> <DRUG_NAME>
Indoprofen

$$$$
41386
  CDK     0927151942
null
 28 29  0  0  0  0  0  0  0  0999 V2000
    2.0000   -2.5588    0.0000 Cl  0  0  0  0  0  0  0  0  0  0  0  0
    3.7320   -3.5588    0.0000 Cl  0  0  0  0  0  0  0  0  0  0  0  0
    5.7195   -0.4437    0.0000 O   0  0  0  0  0  0  0  0  0  0  0  0
    4.5981    0.9412    0.0000 N   0  0  0  0  0  0  0  0  0  0  0  0
    4.7026    1.9357    0.0000 N   0  0  0  0  0  0  0  0  0  0  0  0
    6.0875    3.0572    0.0000 N   0  0  0  0  0  0  0  0  0  0  0  0
    3.7320    0.4412    0.0000 C   0  0  3  0  0  0  0  0  0  0  0  0
    3.7320   -0.5588    0.0000 C   0  0  0  0  0  0  0  0  0  0  0  0
    2.8660    0.9412    0.0000 C   0  0  0  0  0  0  0  0  0  0  0  0
    5.5116    0.5345    0.0000 C   0  0  0  0  0  0  0  0  0  0  0  0
    6.1808    1.2776    0.0000 C   0  0  0  0  0  0  0  0  0  0  0  0
    5.6808    2.1436    0.0000 C   0  0  0  0  0  0  0  0  0  0  0  0
    2.8660   -1.0588    0.0000 C   0  0  0  0  0  0  0  0  0  0  0  0
    4.5981   -1.0588    0.0000 C   0  0  0  0  0  0  0  0  0  0  0  0
    2.8660   -2.0588    0.0000 C   0  0  0  0  0  0  0  0  0  0  0  0
    4.5981   -2.0588    0.0000 C   0  0  0  0  0  0  0  0  0  0  0  0
    3.7320   -2.5588    0.0000 C   0  0  0  0  0  0  0  0  0  0  0  0
    3.7320    1.2912    0.0000 H   0  0  0  0  0  0  0  0  0  0  0  0
    3.1760    1.4782    0.0000 H   0  0  0  0  0  0  0  0  0  0  0  0
    2.3291    1.2512    0.0000 H   0  0  0  0  0  0  0  0  0  0  0  0
    2.5560    0.4043    0.0000 H   0  0  0  0  0  0  0  0  0  0  0  0
    6.5956    0.8169    0.0000 H   0  0  0  0  0  0  0  0  0  0  0  0
    6.6823    1.6420    0.0000 H   0  0  0  0  0  0  0  0  0  0  0  0
    2.3291   -0.7488    0.0000 H   0  0  0  0  0  0  0  0  0  0  0  0
    5.1350   -0.7488    0.0000 H   0  0  0  0  0  0  0  0  0  0  0  0
    5.1350   -2.3688    0.0000 H   0  0  0  0  0  0  0  0  0  0  0  0
    6.7041    3.1220    0.0000 H   0  0  0  0  0  0  0  0  0  0  0  0
    5.7231    3.5588    0.0000 H   0  0  0  0  0  0  0  0  0  0  0  0
  1 15  1  0  0  0  0 
  2 17  1  0  0  0  0 
  3 10  2  0  0  0  0 
  4  5  1  0  0  0  0 
  4  7  1  0  0  0  0 
  4 10  1  0  0  0  0 
  5 12  2  0  0  0  0 
  6 12  1  0  0  0  0 
  6 27  1  0  0  0  0 
  6 28  1  0  0  0  0 
  7  8  1  0  0  0  0 
  7  9  1  0  0  0  0 
  7 18  1  0  0  0  0 
  8 13  2  0  0  0  0 
  8 14  1  0  0  0  0 
  9 19  1  0  0  0  0 
  9 20  1  0  0  0  0 
  9 21  1  0  0  0  0 
 10 11  1  0  0  0  0 
 11 12  1  0  0  0  0 
 11 22  1  0  0  0  0 
 11 23  1  0  0  0  0 
 13 15  1  0  0  0  0 
 13 24  1  0  0  0  0 
 14 16  2  0  0  0  0 
 14 25  1  0  0  0  0 
 15 17  2  0  0  0  0 
 16 17  1  0  0  0  0 
 16 26  1  0  0  0  0 
M  END
> <cdk:Title>
41386

> <cdk:Remark>
null

> <PUBCHEM_COMPOUND_CID>
41386

> <PUBCHEM_COMPOUND_CANONICALIZED>
1

> <PUBCHEM_CACTVS_COMPLEXITY>
348

> <PUBCHEM_CACTVS_HBOND_ACCEPTOR>
2

> <PUBCHEM_CACTVS_HBOND_DONOR>
1

> <PUBCHEM_CACTVS_ROTATABLE_BOND>
2

> <PUBCHEM_CACTVS_SUBSKEYS>
AAADccBzIAAGAAAAAAAAAAAAAAAAAQAAAAAwAAAAAAAAAAABAAAAHgIYAAAADCrBmCQzAIJAAACoAiNyMACSAAAgBQAaikE4BogIICqB0xGEIAhgngCIiAcQgIAOBAAAIAAAAAQIAABAAAAACAAAAAAAAA==

> <PUBCHEM_IUPAC_OPENEYE_NAME>
5-amino-2-[1-(3,4-dichlorophenyl)ethyl]-4H-pyrazol-3-one

> <PUBCHEM_IUPAC_CAS_NAME>
5-amino-2-[1-(3,4-dichlorophenyl)ethyl]-4H-pyrazol-3-one

> <PUBCHEM_IUPAC_NAME>
5-amino-2-[1-(3,4-dichlorophenyl)ethyl]-4H-pyrazol-3-one

> <PUBCHEM_IUPAC_SYSTEMATIC_NAME>
5-azanyl-2-[1-(3,4-dichlorophenyl)ethyl]-4H-pyrazol-3-one

> <PUBCHEM_IUPAC_TRADITIONAL_NAME>
5-amino-2-[1-(3,4-dichlorophenyl)ethyl]-2-pyrazolin-3-one

> <PUBCHEM_IUPAC_INCHI>
InChI=1S/C11H11Cl2N3O/c1-6(16-11(17)5-10(14)15-16)7-2-3-8(12)9(13)4-7/h2-4,6H,5H2,1H3,(H2,14,15)

> <PUBCHEM_IUPAC_INCHIKEY>
RLWRMIYXDPXIEX-UHFFFAOYSA-N

> <PUBCHEM_XLOGP3_AA>
2

> <PUBCHEM_EXACT_MASS>
271.027917

> <PUBCHEM_MOLECULAR_FORMULA>
C11H11Cl2N3O

> <PUBCHEM_MOLECULAR_WEIGHT>
272.13054

> <PUBCHEM_OPENEYE_CAN_SMILES>
CC(C1=CC(=C(C=C1)Cl)Cl)N2C(=O)CC(=N2)N

> <PUBCHEM_OPENEYE_ISO_SMILES>
CC(C1=CC(=C(C=C1)Cl)Cl)N2C(=O)CC(=N2)N

> <PUBCHEM_CACTVS_TPSA>
58.7

> <PUBCHEM_MONOISOTOPIC_WEIGHT>
271.027917

> <PUBCHEM_TOTAL_CHARGE>
0

> <PUBCHEM_HEAVY_ATOM_COUNT>
17

> <PUBCHEM_ATOM_DEF_STEREO_COUNT>
0

> <PUBCHEM_ATOM_UDEF_STEREO_COUNT>
1

> <PUBCHEM_BOND_DEF_STEREO_COUNT>
0

> <PUBCHEM_BOND_UDEF_STEREO_COUNT>
0

> <PUBCHEM_ISOTOPIC_ATOM_COUNT>
0

> <PUBCHEM_COMPONENT_COUNT>
1

> <PUBCHEM_CACTVS_TAUTO_COUNT>
5

> <PUBCHEM_COORDINATE_TYPE>
1
5
255

> <PUBCHEM_BONDANNOTATIONS>
13  15  8
14  16  8
15  17  8
16  17  8
7  18  3
8  13  8
8  14  8

> <DRUG_ID>
w121

> <DRUG_NAME>
Muzolimine

$$$$
3168
  CDK     0927151942
null
 50 53  0  0  0  0  0  0  0  0999 V2000
    9.4312    5.5830    0.0000 F   0  0  0  0  0  0  0  0  0  0  0  0
    6.2619   -4.1889    0.0000 O   0  0  0  0  0  0  0  0  0  0  0  0
    8.8564    1.0366    0.0000 O   0  0  0  0  0  0  0  0  0  0  0  0
    5.6103   -0.5326    0.0000 N   0  0  3  0  0  0  0  0  0  0  0  0
    4.6783   -3.3842    0.0000 N   0  0  0  0  0  0  0  0  0  0  0  0
    4.6783   -4.9936    0.0000 N   0  0  0  0  0  0  0  0  0  0  0  0
    4.6318   -0.7388    0.0000 C   0  0  0  0  0  0  0  0  0  0  0  0
    4.3211   -1.6893    0.0000 C   0  0  0  0  0  0  0  0  0  0  0  0
    6.2781   -1.2769    0.0000 C   0  0  0  0  0  0  0  0  0  0  0  0
    4.9889   -2.4336    0.0000 C   0  0  0  0  0  0  0  0  0  0  0  0
    5.9209    0.4179    0.0000 C   0  0  0  0  0  0  0  0  0  0  0  0
    5.9674   -2.2274    0.0000 C   0  0  0  0  0  0  0  0  0  0  0  0
    6.8994    0.6241    0.0000 C   0  0  0  0  0  0  0  0  0  0  0  0
    3.7320   -3.6889    0.0000 C   0  0  0  0  0  0  0  0  0  0  0  0
    7.2101    1.5747    0.0000 C   0  0  0  0  0  0  0  0  0  0  0  0
    5.2619   -4.1889    0.0000 C   0  0  0  0  0  0  0  0  0  0  0  0
    3.7320   -4.6889    0.0000 C   0  0  0  0  0  0  0  0  0  0  0  0
    2.8660   -3.1889    0.0000 C   0  0  0  0  0  0  0  0  0  0  0  0
    8.1886    1.7809    0.0000 C   0  0  0  0  0  0  0  0  0  0  0  0
    2.8660   -5.1889    0.0000 C   0  0  0  0  0  0  0  0  0  0  0  0
    2.0000   -3.6889    0.0000 C   0  0  0  0  0  0  0  0  0  0  0  0
    2.0000   -4.6889    0.0000 C   0  0  0  0  0  0  0  0  0  0  0  0
    8.4993    2.7314    0.0000 C   0  0  0  0  0  0  0  0  0  0  0  0
    9.4778    2.9376    0.0000 C   0  0  0  0  0  0  0  0  0  0  0  0
    7.8314    3.4757    0.0000 C   0  0  0  0  0  0  0  0  0  0  0  0
    9.7884    3.8881    0.0000 C   0  0  0  0  0  0  0  0  0  0  0  0
    8.1421    4.4262    0.0000 C   0  0  0  0  0  0  0  0  0  0  0  0
    9.1206    4.6324    0.0000 C   0  0  0  0  0  0  0  0  0  0  0  0
    4.6112   -0.1192    0.0000 H   0  0  0  0  0  0  0  0  0  0  0  0
    4.0179   -0.6515    0.0000 H   0  0  0  0  0  0  0  0  0  0  0  0
    3.7742   -1.3973    0.0000 H   0  0  0  0  0  0  0  0  0  0  0  0
    3.9385   -2.1772    0.0000 H   0  0  0  0  0  0  0  0  0  0  0  0
    6.8250   -1.5689    0.0000 H   0  0  0  0  0  0  0  0  0  0  0  0
    6.6607   -0.7890    0.0000 H   0  0  0  0  0  0  0  0  0  0  0  0
    5.9004    1.0376    0.0000 H   0  0  0  0  0  0  0  0  0  0  0  0
    5.3071    0.5053    0.0000 H   0  0  0  0  0  0  0  0  0  0  0  0
    6.3815   -2.6889    0.0000 H   0  0  0  0  0  0  0  0  0  0  0  0
    6.9200    0.0045    0.0000 H   0  0  0  0  0  0  0  0  0  0  0  0
    7.5132    0.5368    0.0000 H   0  0  0  0  0  0  0  0  0  0  0  0
    7.1895    2.1943    0.0000 H   0  0  0  0  0  0  0  0  0  0  0  0
    6.5963    1.6620    0.0000 H   0  0  0  0  0  0  0  0  0  0  0  0
    4.8709   -5.5830    0.0000 H   0  0  0  0  0  0  0  0  0  0  0  0
    2.8660   -2.5689    0.0000 H   0  0  0  0  0  0  0  0  0  0  0  0
    2.8660   -5.8089    0.0000 H   0  0  0  0  0  0  0  0  0  0  0  0
    1.4631   -3.3789    0.0000 H   0  0  0  0  0  0  0  0  0  0  0  0
    1.4631   -4.9989    0.0000 H   0  0  0  0  0  0  0  0  0  0  0  0
    9.8918    2.4761    0.0000 H   0  0  0  0  0  0  0  0  0  0  0  0
    7.2247    3.3478    0.0000 H   0  0  0  0  0  0  0  0  0  0  0  0
   10.3951    4.0160    0.0000 H   0  0  0  0  0  0  0  0  0  0  0  0
    7.7280    4.8877    0.0000 H   0  0  0  0  0  0  0  0  0  0  0  0
  1 28  1  0  0  0  0 
  2 16  2  0  0  0  0 
  3 19  2  0  0  0  0 
  4  7  1  0  0  0  0 
  4  9  1  0  0  0  0 
  4 11  1  0  0  0  0 
  5 10  1  0  0  0  0 
  5 14  1  0  0  0  0 
  5 16  1  0  0  0  0 
  6 16  1  0  0  0  0 
  6 17  1  0  0  0  0 
  6 42  1  0  0  0  0 
  7  8  1  0  0  0  0 
  7 29  1  0  0  0  0 
  7 30  1  0  0  0  0 
  8 10  1  0  0  0  0 
  8 31  1  0  0  0  0 
  8 32  1  0  0  0  0 
  9 12  1  0  0  0  0 
  9 33  1  0  0  0  0 
  9 34  1  0  0  0  0 
 10 12  2  0  0  0  0 
 11 13  1  0  0  0  0 
 11 35  1  0  0  0  0 
 11 36  1  0  0  0  0 
 12 37  1  0  0  0  0 
 13 15  1  0  0  0  0 
 13 38  1  0  0  0  0 
 13 39  1  0  0  0  0 
 14 17  1  0  0  0  0 
 14 18  2  0  0  0  0 
 15 19  1  0  0  0  0 
 15 40  1  0  0  0  0 
 15 41  1  0  0  0  0 
 17 20  2  0  0  0  0 
 18 21  1  0  0  0  0 
 18 43  1  0  0  0  0 
 19 23  1  0  0  0  0 
 20 22  1  0  0  0  0 
 20 44  1  0  0  0  0 
 21 22  2  0  0  0  0 
 21 45  1  0  0  0  0 
 22 46  1  0  0  0  0 
 23 24  2  0  0  0  0 
 23 25  1  0  0  0  0 
 24 26  1  0  0  0  0 
 24 47  1  0  0  0  0 
 25 27  2  0  0  0  0 
 25 48  1  0  0  0  0 
 26 28  2  0  0  0  0 
 26 49  1  0  0  0  0 
 27 28  1  0  0  0  0 
 27 50  1  0  0  0  0 
M  END
> <cdk:Title>
3168

> <cdk:Remark>
null

> <PUBCHEM_COMPOUND_CID>
3168

> <PUBCHEM_COMPOUND_CANONICALIZED>
1

> <PUBCHEM_CACTVS_COMPLEXITY>
615

> <PUBCHEM_CACTVS_HBOND_ACCEPTOR>
4

> <PUBCHEM_CACTVS_HBOND_DONOR>
1

> <PUBCHEM_CACTVS_ROTATABLE_BOND>
6

> <PUBCHEM_CACTVS_SUBSKEYS>
AAADceB7MQAAAAAAAAAAAAAAAAAAAWAAAAAwYIAAAAAAAFgBQAAAHwAQAAAADAzBmAwxwIPAAACIAqRSUACCAAAlAgAIiAEIdMiIYDLA1ZGUIQholALIyacciICOAAAAAAAAACAAAAAAAAAAQAAAAAAAAA==

> <PUBCHEM_IUPAC_OPENEYE_NAME>
3-[1-[4-(4-fluorophenyl)-4-oxo-butyl]-3,6-dihydro-2H-pyridin-4-yl]-1H-benzimidazol-2-one

> <PUBCHEM_IUPAC_CAS_NAME>
3-[1-[4-(4-fluorophenyl)-4-oxobutyl]-3,6-dihydro-2H-pyridin-4-yl]-1H-benzimidazol-2-one

> <PUBCHEM_IUPAC_NAME>
3-[1-[4-(4-fluorophenyl)-4-oxobutyl]-3,6-dihydro-2H-pyridin-4-yl]-1H-benzimidazol-2-one

> <PUBCHEM_IUPAC_SYSTEMATIC_NAME>
3-[1-[4-(4-fluorophenyl)-4-oxidanylidene-butyl]-3,6-dihydro-2H-pyridin-4-yl]-1H-benzimidazol-2-one

> <PUBCHEM_IUPAC_TRADITIONAL_NAME>
3-[1-[4-(4-fluorophenyl)-4-keto-butyl]-3,6-dihydro-2H-pyridin-4-yl]-1H-benzimidazol-2-one

> <PUBCHEM_IUPAC_INCHI>
InChI=1S/C22H22FN3O2/c23-17-9-7-16(8-10-17)21(27)6-3-13-25-14-11-18(12-15-25)26-20-5-2-1-4-19(20)24-22(26)28/h1-2,4-5,7-11H,3,6,12-15H2,(H,24,28)

> <PUBCHEM_IUPAC_INCHIKEY>
RMEDXOLNCUSCGS-UHFFFAOYSA-N

> <PUBCHEM_XLOGP3>
3.5

> <PUBCHEM_EXACT_MASS>
379.169605

> <PUBCHEM_MOLECULAR_FORMULA>
C22H22FN3O2

> <PUBCHEM_MOLECULAR_WEIGHT>
379.427383

> <PUBCHEM_OPENEYE_CAN_SMILES>
C1CN(CC=C1N2C3=CC=CC=C3NC2=O)CCCC(=O)C4=CC=C(C=C4)F

> <PUBCHEM_OPENEYE_ISO_SMILES>
C1CN(CC=C1N2C3=CC=CC=C3NC2=O)CCCC(=O)C4=CC=C(C=C4)F

> <PUBCHEM_CACTVS_TPSA>
52.6

> <PUBCHEM_MONOISOTOPIC_WEIGHT>
379.169605

> <PUBCHEM_TOTAL_CHARGE>
0

> <PUBCHEM_HEAVY_ATOM_COUNT>
28

> <PUBCHEM_ATOM_DEF_STEREO_COUNT>
0

> <PUBCHEM_ATOM_UDEF_STEREO_COUNT>
0

> <PUBCHEM_BOND_DEF_STEREO_COUNT>
0

> <PUBCHEM_BOND_UDEF_STEREO_COUNT>
0

> <PUBCHEM_ISOTOPIC_ATOM_COUNT>
0

> <PUBCHEM_COMPONENT_COUNT>
1

> <PUBCHEM_CACTVS_TAUTO_COUNT>
4

> <PUBCHEM_COORDINATE_TYPE>
1
5
255

> <PUBCHEM_BONDANNOTATIONS>
14  17  8
14  18  8
17  20  8
18  21  8
20  22  8
21  22  8
23  24  8
23  25  8
24  26  8
25  27  8
26  28  8
27  28  8
5  14  8
5  16  8
6  16  8
6  17  8

> <DRUG_ID>
w122

> <DRUG_NAME>
Droperidol

$$$$
170322
  CDK     0927151942
null
 58 59  0  0  0  0  0  0  0  0999 V2000
    9.3913    5.1514    0.0000 S   0  0  0  0  0  0  0  0  0  0  0  0
   10.2573    5.6514    0.0000 O   0  0  0  0  0  0  0  0  0  0  0  0
    8.8913    6.0174    0.0000 O   0  0  0  0  0  0  0  0  0  0  0  0
    9.8913    4.2854    0.0000 O   0  0  0  0  0  0  0  0  0  0  0  0
    4.1098    3.8988    0.0000 O   0  0  0  0  0  0  0  0  0  0  0  0
    8.5252    4.6514    0.0000 N   0  0  0  0  0  0  0  0  0  0  0  0
    1.5407    4.2078    0.0000 N   0  0  3  0  0  0  0  0  0  0  0  0
    2.3497    3.6200    0.0000 N   0  0  0  0  0  0  0  0  0  0  0  0
    3.4375    5.9679    0.0000 N   0  0  0  0  0  0  0  0  0  0  0  0
    8.5252    3.6514    0.0000 C   0  0  0  0  0  0  0  0  0  0  0  0
    7.6592    3.1514    0.0000 C   0  0  0  0  0  0  0  0  0  0  0  0
    9.3913    3.1514    0.0000 C   0  0  0  0  0  0  0  0  0  0  0  0
    9.3913    2.1514    0.0000 C   0  0  0  0  0  0  0  0  0  0  0  0
    7.6592    2.1514    0.0000 C   0  0  0  0  0  0  0  0  0  0  0  0
    8.5252    1.6514    0.0000 C   0  0  0  0  0  0  0  0  0  0  0  0
    1.8497    5.1588    0.0000 C   0  0  0  0  0  0  0  0  0  0  0  0
    2.8497    5.1588    0.0000 C   0  0  0  0  0  0  0  0  0  0  0  0
    3.1588    4.2078    0.0000 C   0  0  0  0  0  0  0  0  0  0  0  0
    2.3497    2.6200    0.0000 C   0  0  0  0  0  0  0  0  0  0  0  0
    1.2619    5.9679    0.0000 C   0  0  0  0  0  0  0  0  0  0  0  0
    0.5897    3.8988    0.0000 C   0  0  0  0  0  0  0  0  0  0  0  0
    3.0308    6.8814    0.0000 C   0  0  0  0  0  0  0  0  0  0  0  0
    4.4320    5.8633    0.0000 C   0  0  0  0  0  0  0  0  0  0  0  0
    1.4837    2.1200    0.0000 C   0  0  0  0  0  0  0  0  0  0  0  0
    3.2158    2.1200    0.0000 C   0  0  0  0  0  0  0  0  0  0  0  0
    1.4837    1.1200    0.0000 C   0  0  0  0  0  0  0  0  0  0  0  0
    3.2158    1.1200    0.0000 C   0  0  0  0  0  0  0  0  0  0  0  0
    2.3497    0.6200    0.0000 C   0  0  0  0  0  0  0  0  0  0  0  0
    9.0622    3.9614    0.0000 H   0  0  0  0  0  0  0  0  0  0  0  0
   10.0019    3.0437    0.0000 H   0  0  0  0  0  0  0  0  0  0  0  0
    9.6033    3.7340    0.0000 H   0  0  0  0  0  0  0  0  0  0  0  0
    7.4472    3.7340    0.0000 H   0  0  0  0  0  0  0  0  0  0  0  0
    7.0486    3.0437    0.0000 H   0  0  0  0  0  0  0  0  0  0  0  0
    9.6033    1.5688    0.0000 H   0  0  0  0  0  0  0  0  0  0  0  0
   10.0019    2.2590    0.0000 H   0  0  0  0  0  0  0  0  0  0  0  0
    7.0486    2.2590    0.0000 H   0  0  0  0  0  0  0  0  0  0  0  0
    7.4472    1.5688    0.0000 H   0  0  0  0  0  0  0  0  0  0  0  0
    8.1267    1.1764    0.0000 H   0  0  0  0  0  0  0  0  0  0  0  0
    8.9238    1.1764    0.0000 H   0  0  0  0  0  0  0  0  0  0  0  0
    7.9883    4.9614    0.0000 H   0  0  0  0  0  0  0  0  0  0  0  0
   10.2573    6.2714    0.0000 H   0  0  0  0  0  0  0  0  0  0  0  0
    1.7635    6.3323    0.0000 H   0  0  0  0  0  0  0  0  0  0  0  0
    0.8975    6.4694    0.0000 H   0  0  0  0  0  0  0  0  0  0  0  0
    0.7604    5.6034    0.0000 H   0  0  0  0  0  0  0  0  0  0  0  0
    0.3981    4.4884    0.0000 H   0  0  0  0  0  0  0  0  0  0  0  0
    0.0000    3.7072    0.0000 H   0  0  0  0  0  0  0  0  0  0  0  0
    0.7812    3.3091    0.0000 H   0  0  0  0  0  0  0  0  0  0  0  0
    3.5972    7.1336    0.0000 H   0  0  0  0  0  0  0  0  0  0  0  0
    2.7786    7.4478    0.0000 H   0  0  0  0  0  0  0  0  0  0  0  0
    2.4644    6.6292    0.0000 H   0  0  0  0  0  0  0  0  0  0  0  0
    4.3672    5.2467    0.0000 H   0  0  0  0  0  0  0  0  0  0  0  0
    5.0486    5.7985    0.0000 H   0  0  0  0  0  0  0  0  0  0  0  0
    4.4968    6.4799    0.0000 H   0  0  0  0  0  0  0  0  0  0  0  0
    0.9468    2.4300    0.0000 H   0  0  0  0  0  0  0  0  0  0  0  0
    3.7527    2.4300    0.0000 H   0  0  0  0  0  0  0  0  0  0  0  0
    0.9468    0.8100    0.0000 H   0  0  0  0  0  0  0  0  0  0  0  0
    3.7527    0.8100    0.0000 H   0  0  0  0  0  0  0  0  0  0  0  0
    2.3497    0.0000    0.0000 H   0  0  0  0  0  0  0  0  0  0  0  0
  1  2  1  0  0  0  0 
  1  3  2  0  0  0  0 
  1  4  2  0  0  0  0 
  1  6  1  0  0  0  0 
  2 41  1  0  0  0  0 
  5 18  2  0  0  0  0 
  6 10  1  0  0  0  0 
  6 40  1  0  0  0  0 
  7  8  1  0  0  0  0 
  7 16  1  0  0  0  0 
  7 21  1  0  0  0  0 
  8 18  1  0  0  0  0 
  8 19  1  0  0  0  0 
  9 17  1  0  0  0  0 
  9 22  1  0  0  0  0 
  9 23  1  0  0  0  0 
 10 11  1  0  0  0  0 
 10 12  1  0  0  0  0 
 10 29  1  0  0  0  0 
 11 14  1  0  0  0  0 
 11 32  1  0  0  0  0 
 11 33  1  0  0  0  0 
 12 13  1  0  0  0  0 
 12 30  1  0  0  0  0 
 12 31  1  0  0  0  0 
 13 15  1  0  0  0  0 
 13 34  1  0  0  0  0 
 13 35  1  0  0  0  0 
 14 15  1  0  0  0  0 
 14 36  1  0  0  0  0 
 14 37  1  0  0  0  0 
 15 38  1  0  0  0  0 
 15 39  1  0  0  0  0 
 16 17  2  0  0  0  0 
 16 20  1  0  0  0  0 
 17 18  1  0  0  0  0 
 19 24  2  0  0  0  0 
 19 25  1  0  0  0  0 
 20 42  1  0  0  0  0 
 20 43  1  0  0  0  0 
 20 44  1  0  0  0  0 
 21 45  1  0  0  0  0 
 21 46  1  0  0  0  0 
 21 47  1  0  0  0  0 
 22 48  1  0  0  0  0 
 22 49  1  0  0  0  0 
 22 50  1  0  0  0  0 
 23 51  1  0  0  0  0 
 23 52  1  0  0  0  0 
 23 53  1  0  0  0  0 
 24 26  1  0  0  0  0 
 24 54  1  0  0  0  0 
 25 27  2  0  0  0  0 
 25 55  1  0  0  0  0 
 26 28  2  0  0  0  0 
 26 56  1  0  0  0  0 
 27 28  1  0  0  0  0 
 27 57  1  0  0  0  0 
 28 58  1  0  0  0  0 
M  END
> <cdk:Title>
170322

> <cdk:Remark>
null

> <PUBCHEM_COMPOUND_CID>
170322

> <PUBCHEM_COMPOUND_CANONICALIZED>
1

> <PUBCHEM_CACTVS_COMPLEXITY>
543

> <PUBCHEM_CACTVS_HBOND_ACCEPTOR>
7

> <PUBCHEM_CACTVS_HBOND_DONOR>
2

> <PUBCHEM_CACTVS_ROTATABLE_BOND>
4

> <PUBCHEM_CACTVS_SUBSKEYS>
AAADceB7uABAAAAAAAAAAAAAAAAAAQAAAAAwYAAAAAAAAAABAAAAHgAYSAAACCjBkAQywINAAICIACVSUDCCBAAhAgAaiICIZMgIYCLAkbGUIAhglADIyUcQAAAAAAAAAAAAAAAAAAAAAAAAAAAAAAAAAA==

> <PUBCHEM_IUPAC_OPENEYE_NAME>
cyclohexylsulfamic acid;4-(dimethylamino)-1,5-dimethyl-2-phenyl-pyrazol-3-one

> <PUBCHEM_IUPAC_CAS_NAME>
cyclohexylsulfamic acid;4-(dimethylamino)-1,5-dimethyl-2-phenyl-3-pyrazolone

> <PUBCHEM_IUPAC_NAME>
cyclohexylsulfamic acid;4-(dimethylamino)-1,5-dimethyl-2-phenylpyrazol-3-one

> <PUBCHEM_IUPAC_SYSTEMATIC_NAME>
cyclohexylsulfamic acid;4-(dimethylamino)-1,5-dimethyl-2-phenyl-pyrazol-3-one

> <PUBCHEM_IUPAC_TRADITIONAL_NAME>
cyclohexylsulfamic acid;4-(dimethylamino)-1,5-dimethyl-2-phenyl-3-pyrazolin-3-one

> <PUBCHEM_IUPAC_INCHI>
InChI=1S/C13H17N3O.C6H13NO3S/c1-10-12(14(2)3)13(17)16(15(10)4)11-8-6-5-7-9-11;8-11(9,10)7-6-4-2-1-3-5-6/h5-9H,1-4H3;6-7H,1-5H2,(H,8,9,10)

> <PUBCHEM_IUPAC_INCHIKEY>
NPCNIYOIXLZTQI-UHFFFAOYSA-N

> <PUBCHEM_EXACT_MASS>
410.198776

> <PUBCHEM_MOLECULAR_FORMULA>
C19H30N4O4S

> <PUBCHEM_MOLECULAR_WEIGHT>
410.5309

> <PUBCHEM_OPENEYE_CAN_SMILES>
CC1=C(C(=O)N(N1C)C2=CC=CC=C2)N(C)C.C1CCC(CC1)NS(=O)(=O)O

> <PUBCHEM_OPENEYE_ISO_SMILES>
CC1=C(C(=O)N(N1C)C2=CC=CC=C2)N(C)C.C1CCC(CC1)NS(=O)(=O)O

> <PUBCHEM_CACTVS_TPSA>
102

> <PUBCHEM_MONOISOTOPIC_WEIGHT>
410.198776

> <PUBCHEM_TOTAL_CHARGE>
0

> <PUBCHEM_HEAVY_ATOM_COUNT>
28

> <PUBCHEM_ATOM_DEF_STEREO_COUNT>
0

> <PUBCHEM_ATOM_UDEF_STEREO_COUNT>
0

> <PUBCHEM_BOND_DEF_STEREO_COUNT>
0

> <PUBCHEM_BOND_UDEF_STEREO_COUNT>
0

> <PUBCHEM_ISOTOPIC_ATOM_COUNT>
0

> <PUBCHEM_COMPONENT_COUNT>
2

> <PUBCHEM_CACTVS_TAUTO_COUNT>
1

> <PUBCHEM_COORDINATE_TYPE>
1
5
255

> <PUBCHEM_BONDANNOTATIONS>
16  17  8
17  18  8
19  24  8
19  25  8
24  26  8
25  27  8
26  28  8
27  28  8
7  16  8
7  8  8
8  18  8

> <DRUG_ID>
w123

> <DRUG_NAME>
Aminophenazone cyclamate

$$$$
2145
  CDK     0927151942
null
 33 34  0  0  0  0  0  0  0  0999 V2000
    2.0000   -0.5005    0.0000 O   0  0  0  0  0  0  0  0  0  0  0  0
    3.7320   -3.5005    0.0000 O   0  0  0  0  0  0  0  0  0  0  0  0
    2.8660   -2.0005    0.0000 N   0  0  0  0  0  0  0  0  0  0  0  0
    5.7320    2.9636    0.0000 N   0  0  0  0  0  0  0  0  0  0  0  0
    3.7320   -0.5005    0.0000 C   0  0  3  0  0  0  0  0  0  0  0  0
    4.5981   -1.0005    0.0000 C   0  0  0  0  0  0  0  0  0  0  0  0
    3.2320    0.3655    0.0000 C   0  0  0  0  0  0  0  0  0  0  0  0
    4.2320    0.3655    0.0000 C   0  0  0  0  0  0  0  0  0  0  0  0
    4.5981   -2.0005    0.0000 C   0  0  0  0  0  0  0  0  0  0  0  0
    2.8660   -1.0005    0.0000 C   0  0  0  0  0  0  0  0  0  0  0  0
    3.7320   -2.5005    0.0000 C   0  0  0  0  0  0  0  0  0  0  0  0
    2.2320    0.3655    0.0000 C   0  0  0  0  0  0  0  0  0  0  0  0
    5.2320    0.3655    0.0000 C   0  0  0  0  0  0  0  0  0  0  0  0
    3.7320    1.2315    0.0000 C   0  0  0  0  0  0  0  0  0  0  0  0
    5.7320    1.2315    0.0000 C   0  0  0  0  0  0  0  0  0  0  0  0
    4.2320    2.0976    0.0000 C   0  0  0  0  0  0  0  0  0  0  0  0
    5.2320    2.0976    0.0000 C   0  0  0  0  0  0  0  0  0  0  0  0
    5.2087   -1.1082    0.0000 H   0  0  0  0  0  0  0  0  0  0  0  0
    4.8101   -0.4179    0.0000 H   0  0  0  0  0  0  0  0  0  0  0  0
    3.8147    0.5776    0.0000 H   0  0  0  0  0  0  0  0  0  0  0  0
    3.1244    0.9761    0.0000 H   0  0  0  0  0  0  0  0  0  0  0  0
    4.8101   -2.5831    0.0000 H   0  0  0  0  0  0  0  0  0  0  0  0
    5.2087   -1.8929    0.0000 H   0  0  0  0  0  0  0  0  0  0  0  0
    2.3291   -2.3105    0.0000 H   0  0  0  0  0  0  0  0  0  0  0  0
    2.2320    0.9855    0.0000 H   0  0  0  0  0  0  0  0  0  0  0  0
    1.6120    0.3655    0.0000 H   0  0  0  0  0  0  0  0  0  0  0  0
    2.2320   -0.2545    0.0000 H   0  0  0  0  0  0  0  0  0  0  0  0
    5.5420   -0.1714    0.0000 H   0  0  0  0  0  0  0  0  0  0  0  0
    3.1120    1.2315    0.0000 H   0  0  0  0  0  0  0  0  0  0  0  0
    6.3520    1.2315    0.0000 H   0  0  0  0  0  0  0  0  0  0  0  0
    3.9220    2.6345    0.0000 H   0  0  0  0  0  0  0  0  0  0  0  0
    6.3520    2.9636    0.0000 H   0  0  0  0  0  0  0  0  0  0  0  0
    5.4220    3.5005    0.0000 H   0  0  0  0  0  0  0  0  0  0  0  0
  1 10  2  0  0  0  0 
  2 11  2  0  0  0  0 
  3 10  1  0  0  0  0 
  3 11  1  0  0  0  0 
  3 24  1  0  0  0  0 
  4 17  1  0  0  0  0 
  4 32  1  0  0  0  0 
  4 33  1  0  0  0  0 
  5  6  1  0  0  0  0 
  5  7  1  0  0  0  0 
  5  8  1  0  0  0  0 
  5 10  1  0  0  0  0 
  6  9  1  0  0  0  0 
  6 18  1  0  0  0  0 
  6 19  1  0  0  0  0 
  7 12  1  0  0  0  0 
  7 20  1  0  0  0  0 
  7 21  1  0  0  0  0 
  8 13  2  0  0  0  0 
  8 14  1  0  0  0  0 
  9 11  1  0  0  0  0 
  9 22  1  0  0  0  0 
  9 23  1  0  0  0  0 
 12 25  1  0  0  0  0 
 12 26  1  0  0  0  0 
 12 27  1  0  0  0  0 
 13 15  1  0  0  0  0 
 13 28  1  0  0  0  0 
 14 16  2  0  0  0  0 
 14 29  1  0  0  0  0 
 15 17  2  0  0  0  0 
 15 30  1  0  0  0  0 
 16 17  1  0  0  0  0 
 16 31  1  0  0  0  0 
M  END
> <cdk:Title>
2145

> <cdk:Remark>
null

> <PUBCHEM_COMPOUND_CID>
2145

> <PUBCHEM_COMPOUND_CANONICALIZED>
1

> <PUBCHEM_CACTVS_COMPLEXITY>
321

> <PUBCHEM_CACTVS_HBOND_ACCEPTOR>
3

> <PUBCHEM_CACTVS_HBOND_DONOR>
2

> <PUBCHEM_CACTVS_ROTATABLE_BOND>
2

> <PUBCHEM_CACTVS_SUBSKEYS>
AAADceBzMAAAAAAAAAAAAAAAAAAAAAAAAAA8QAAAAAAAAAABAAAAHgAQAAAADgiBmAAywILAAACIAiVSUACCAAAgAgAIiAEAZIgIIDKAlZGEIABglCCIyAcYi8CPiAAAAAAAAAAQAAAAAAAAAAAAAAAAAA==

> <PUBCHEM_IUPAC_OPENEYE_NAME>
3-(4-aminophenyl)-3-ethyl-piperidine-2,6-dione

> <PUBCHEM_IUPAC_CAS_NAME>
3-(4-aminophenyl)-3-ethylpiperidine-2,6-dione

> <PUBCHEM_IUPAC_NAME>
3-(4-aminophenyl)-3-ethylpiperidine-2,6-dione

> <PUBCHEM_IUPAC_SYSTEMATIC_NAME>
3-(4-aminophenyl)-3-ethyl-piperidine-2,6-dione

> <PUBCHEM_IUPAC_TRADITIONAL_NAME>
3-(4-aminophenyl)-3-ethyl-piperidine-2,6-quinone

> <PUBCHEM_IUPAC_INCHI>
InChI=1S/C13H16N2O2/c1-2-13(8-7-11(16)15-12(13)17)9-3-5-10(14)6-4-9/h3-6H,2,7-8,14H2,1H3,(H,15,16,17)

> <PUBCHEM_IUPAC_INCHIKEY>
ROBVIMPUHSLWNV-UHFFFAOYSA-N

> <PUBCHEM_XLOGP3>
1.2

> <PUBCHEM_EXACT_MASS>
232.121178

> <PUBCHEM_MOLECULAR_FORMULA>
C13H16N2O2

> <PUBCHEM_MOLECULAR_WEIGHT>
232.27834

> <PUBCHEM_OPENEYE_CAN_SMILES>
CCC1(CCC(=O)NC1=O)C2=CC=C(C=C2)N

> <PUBCHEM_OPENEYE_ISO_SMILES>
CCC1(CCC(=O)NC1=O)C2=CC=C(C=C2)N

> <PUBCHEM_CACTVS_TPSA>
72.2

> <PUBCHEM_MONOISOTOPIC_WEIGHT>
232.121178

> <PUBCHEM_TOTAL_CHARGE>
0

> <PUBCHEM_HEAVY_ATOM_COUNT>
17

> <PUBCHEM_ATOM_DEF_STEREO_COUNT>
0

> <PUBCHEM_ATOM_UDEF_STEREO_COUNT>
1

> <PUBCHEM_BOND_DEF_STEREO_COUNT>
0

> <PUBCHEM_BOND_UDEF_STEREO_COUNT>
0

> <PUBCHEM_ISOTOPIC_ATOM_COUNT>
0

> <PUBCHEM_COMPONENT_COUNT>
1

> <PUBCHEM_CACTVS_TAUTO_COUNT>
5

> <PUBCHEM_COORDINATE_TYPE>
1
5
255

> <PUBCHEM_BONDANNOTATIONS>
13  15  8
14  16  8
15  17  8
16  17  8
5  7  3
8  13  8
8  14  8

> <DRUG_ID>
w124

> <DRUG_NAME>
Aminoglutethimide

$$$$
6414792
  CDK     0927151942
null
 32 33  0  0  0  0  0  0  0  0999 V2000
    4.2514   -1.0520    0.0000 O   0  0  0  0  0  0  0  0  0  0  0  0
   12.0932    0.5412    0.0000 O   0  0  0  0  0  0  0  0  0  0  0  0
   11.2272    2.0412    0.0000 O   0  0  0  0  0  0  0  0  0  0  0  0
    2.0000   -2.4997    0.0000 O   0  0  0  0  0  0  0  0  0  0  0  0
    2.1810   -0.7771    0.0000 O   0  0  0  0  0  0  0  0  0  0  0  0
   10.3611    0.5412    0.0000 N   0  0  0  0  0  0  0  0  0  0  0  0
    8.6291    0.5412    0.0000 N   0  0  0  0  0  0  0  0  0  0  0  0
    9.4951   -0.9588    0.0000 N   0  0  0  0  0  0  0  0  0  0  0  0
    8.6291   -1.4588    0.0000 N   0  0  0  0  0  0  0  0  0  0  0  0
    2.5878   -1.6907    0.0000 N   0  0  0  0  0  0  0  0  0  0  0  0
    9.4951    0.0412    0.0000 C   0  0  0  0  0  0  0  0  0  0  0  0
   11.2272    0.0412    0.0000 C   0  0  0  0  0  0  0  0  0  0  0  0
   10.3611    1.5412    0.0000 C   0  0  0  0  0  0  0  0  0  0  0  0
    5.1650   -1.4588    0.0000 C   0  0  0  0  0  0  0  0  0  0  0  0
    7.7631   -0.9588    0.0000 C   0  0  0  0  0  0  0  0  0  0  0  0
    6.0310   -0.9588    0.0000 C   0  0  0  0  0  0  0  0  0  0  0  0
    6.8970   -1.4588    0.0000 C   0  0  0  0  0  0  0  0  0  0  0  0
    5.0604   -2.4533    0.0000 C   0  0  0  0  0  0  0  0  0  0  0  0
    7.7631    0.0412    0.0000 C   0  0  0  0  0  0  0  0  0  0  0  0
    3.5823   -1.7952    0.0000 C   0  0  0  0  0  0  0  0  0  0  0  0
    4.0823   -2.6612    0.0000 C   0  0  0  0  0  0  0  0  0  0  0  0
   10.8286   -0.4337    0.0000 H   0  0  0  0  0  0  0  0  0  0  0  0
   11.6257   -0.4337    0.0000 H   0  0  0  0  0  0  0  0  0  0  0  0
   10.1491    2.1238    0.0000 H   0  0  0  0  0  0  0  0  0  0  0  0
    9.7506    1.4336    0.0000 H   0  0  0  0  0  0  0  0  0  0  0  0
    6.0310   -0.3388    0.0000 H   0  0  0  0  0  0  0  0  0  0  0  0
    6.8970   -2.0788    0.0000 H   0  0  0  0  0  0  0  0  0  0  0  0
    5.5212   -2.8682    0.0000 H   0  0  0  0  0  0  0  0  0  0  0  0
    7.2261    0.3512    0.0000 H   0  0  0  0  0  0  0  0  0  0  0  0
    3.8301   -3.2276    0.0000 H   0  0  0  0  0  0  0  0  0  0  0  0
   12.6301    0.2312    0.0000 H   0  0  0  0  0  0  0  0  0  0  0  0
   11.2272    2.6612    0.0000 H   0  0  0  0  0  0  0  0  0  0  0  0
  1 14  1  0  0  0  0 
  1 20  1  0  0  0  0 
  2 12  1  0  0  0  0 
  2 31  1  0  0  0  0 
  3 13  1  0  0  0  0 
  3 32  1  0  0  0  0 
  4 10  1  0  0  0  0 
  5 10  2  0  0  0  0 
  6 11  1  0  0  0  0 
  6 12  1  0  0  0  0 
  6 13  1  0  0  0  0 
  7 11  2  0  0  0  0 
  7 19  1  0  0  0  0 
  8  9  2  0  0  0  0 
  8 11  1  0  0  0  0 
  9 15  1  0  0  0  0 
 10 20  1  0  0  0  0 
 12 22  1  0  0  0  0 
 12 23  1  0  0  0  0 
 13 24  1  0  0  0  0 
 13 25  1  0  0  0  0 
 14 16  1  0  0  0  0 
 14 18  2  0  0  0  0 
 15 17  1  0  0  0  0 
 15 19  2  0  0  0  0 
 16 17  2  0  0  0  0 
 16 26  1  0  0  0  0 
 17 27  1  0  0  0  0 
 18 21  1  0  0  0  0 
 18 28  1  0  0  0  0 
 19 29  1  0  0  0  0 
 20 21  2  0  0  0  0 
 21 30  1  0  0  0  0 
M  CHG  1   4  -1
M  CHG  1  10   1
M  END
> <cdk:Title>
6414792

> <cdk:Remark>
null

> <PUBCHEM_COMPOUND_CID>
6414792

> <PUBCHEM_COMPOUND_CANONICALIZED>
1

> <PUBCHEM_CACTVS_COMPLEXITY>
373

> <PUBCHEM_CACTVS_HBOND_ACCEPTOR>
9

> <PUBCHEM_CACTVS_HBOND_DONOR>
2

> <PUBCHEM_CACTVS_ROTATABLE_BOND>
5

> <PUBCHEM_CACTVS_SUBSKEYS>
AAADccBzuAAAAAAAAAAAAAAAAAAAASAAAAAsAAAAAAAAAAAB4AAAHgAMCAAACAzBlgY9lJcYVkCrAbV3dwCSjC89MqA92AE+fNqMfjLEvZuemSDsyBNI6aa8AAAAAAAAAAAAAAAAAAAAAAAAAAAAAAAAAA==

> <PUBCHEM_IUPAC_OPENEYE_NAME>
[hydroxymethyl-[6-[(E)-2-(5-nitro-2-furyl)vinyl]-1,2,4-triazin-3-yl]amino]methanol

> <PUBCHEM_IUPAC_CAS_NAME>
[hydroxymethyl-[6-[(E)-2-(5-nitro-2-furanyl)ethenyl]-1,2,4-triazin-3-yl]amino]methanol

> <PUBCHEM_IUPAC_NAME>
[hydroxymethyl-[6-[(E)-2-(5-nitrofuran-2-yl)ethenyl]-1,2,4-triazin-3-yl]amino]methanol

> <PUBCHEM_IUPAC_SYSTEMATIC_NAME>
[hydroxymethyl-[6-[(E)-2-(5-nitrofuran-2-yl)ethenyl]-1,2,4-triazin-3-yl]amino]methanol

> <PUBCHEM_IUPAC_TRADITIONAL_NAME>
[methylol-[6-[(E)-2-(5-nitro-2-furyl)vinyl]-1,2,4-triazin-3-yl]amino]methanol

> <PUBCHEM_IUPAC_INCHI>
InChI=1S/C11H11N5O5/c17-6-15(7-18)11-12-5-8(13-14-11)1-2-9-3-4-10(21-9)16(19)20/h1-5,17-18H,6-7H2/b2-1+

> <PUBCHEM_IUPAC_INCHIKEY>
RQWQIVXLPCFXCO-OWOJBTEDSA-N

> <PUBCHEM_XLOGP3_AA>
0

> <PUBCHEM_EXACT_MASS>
293.076018

> <PUBCHEM_MOLECULAR_FORMULA>
C11H11N5O5

> <PUBCHEM_MOLECULAR_WEIGHT>
293.23554

> <PUBCHEM_OPENEYE_CAN_SMILES>
C1=C(OC(=C1)[N+](=O)[O-])C=CC2=CN=C(N=N2)N(CO)CO

> <PUBCHEM_OPENEYE_ISO_SMILES>
C1=C(OC(=C1)[N+](=O)[O-])/C=C/C2=CN=C(N=N2)N(CO)CO

> <PUBCHEM_CACTVS_TPSA>
141

> <PUBCHEM_MONOISOTOPIC_WEIGHT>
293.076018

> <PUBCHEM_TOTAL_CHARGE>
0

> <PUBCHEM_HEAVY_ATOM_COUNT>
21

> <PUBCHEM_ATOM_DEF_STEREO_COUNT>
0

> <PUBCHEM_ATOM_UDEF_STEREO_COUNT>
0

> <PUBCHEM_BOND_DEF_STEREO_COUNT>
1

> <PUBCHEM_BOND_UDEF_STEREO_COUNT>
0

> <PUBCHEM_ISOTOPIC_ATOM_COUNT>
0

> <PUBCHEM_COMPONENT_COUNT>
1

> <PUBCHEM_CACTVS_TAUTO_COUNT>
1

> <PUBCHEM_COORDINATE_TYPE>
1
5
255

> <PUBCHEM_BONDANNOTATIONS>
1  14  8
1  20  8
14  18  8
15  19  8
18  21  8
20  21  8
7  11  8
7  19  8
8  11  8
8  9  8
9  15  8

> <DRUG_ID>
w125

> <DRUG_NAME>
Dihydroxymethylfuratrizine

$$$$
15376
  CDK     0927151942
null
 52 56  0  0  0  0  0  0  0  0999 V2000
    6.4814    0.4724    0.0000 O   0  0  0  0  0  0  0  0  0  0  0  0
    5.4814    2.2045    0.0000 O   0  0  0  0  0  0  0  0  0  0  0  0
    6.9814    1.3384    0.0000 O   0  0  0  0  0  0  0  0  0  0  0  0
    2.8393   -1.0344    0.0000 N   0  0  3  0  0  0  0  0  0  0  0  0
    5.4814   -0.5276    0.0000 N   0  0  0  0  0  0  0  0  0  0  0  0
    3.7493    0.4724    0.0000 C   0  0  2  0  0  0  0  0  0  0  0  0
    3.7493   -0.5276    0.0000 C   0  0  1  0  0  0  0  0  0  0  0  0
    4.6153    0.9724    0.0000 C   0  0  0  0  0  0  0  0  0  0  0  0
    4.6153   -1.0276    0.0000 C   0  0  0  0  0  0  0  0  0  0  0  0
    2.8911    0.9694    0.0000 C   0  0  0  0  0  0  0  0  0  0  0  0
    5.4814    0.4724    0.0000 C   0  0  1  0  0  0  0  0  0  0  0  0
    3.7493    1.4724    0.0000 C   0  0  0  0  0  0  0  0  0  0  0  0
    2.0256    0.4852    0.0000 C   0  0  0  0  0  0  0  0  0  0  0  0
    2.0000   -0.5062    0.0000 C   0  0  0  0  0  0  0  0  0  0  0  0
    4.6314   -2.0691    0.0000 C   0  0  0  0  0  0  0  0  0  0  0  0
    2.8313   -2.0760    0.0000 C   0  0  0  0  0  0  0  0  0  0  0  0
    3.7334   -2.5968    0.0000 C   0  0  0  0  0  0  0  0  0  0  0  0
    6.0993   -1.3059    0.0000 C   0  0  0  0  0  0  0  0  0  0  0  0
    5.6194   -2.1762    0.0000 C   0  0  0  0  0  0  0  0  0  0  0  0
    2.8833    1.9724    0.0000 C   0  0  0  0  0  0  0  0  0  0  0  0
    5.9814    1.3384    0.0000 C   0  0  0  0  0  0  0  0  0  0  0  0
    7.1338   -1.2696    0.0000 C   0  0  0  0  0  0  0  0  0  0  0  0
    6.1408   -3.0705    0.0000 C   0  0  0  0  0  0  0  0  0  0  0  0
    7.6758   -2.1516    0.0000 C   0  0  0  0  0  0  0  0  0  0  0  0
    7.1760   -3.0581    0.0000 C   0  0  0  0  0  0  0  0  0  0  0  0
    5.9814    3.0705    0.0000 C   0  0  0  0  0  0  0  0  0  0  0  0
    3.7493   -1.3776    0.0000 H   0  0  0  0  0  0  0  0  0  0  0  0
    5.0139    1.4474    0.0000 H   0  0  0  0  0  0  0  0  0  0  0  0
    4.2168    1.4474    0.0000 H   0  0  0  0  0  0  0  0  0  0  0  0
    3.2922    1.4422    0.0000 H   0  0  0  0  0  0  0  0  0  0  0  0
    2.4971    1.4480    0.0000 H   0  0  0  0  0  0  0  0  0  0  0  0
    4.3599    1.3648    0.0000 H   0  0  0  0  0  0  0  0  0  0  0  0
    3.9614    2.0550    0.0000 H   0  0  0  0  0  0  0  0  0  0  0  0
    1.8239    1.0714    0.0000 H   0  0  0  0  0  0  0  0  0  0  0  0
    1.4128    0.3908    0.0000 H   0  0  0  0  0  0  0  0  0  0  0  0
    1.3929   -0.3803    0.0000 H   0  0  0  0  0  0  0  0  0  0  0  0
    1.7682   -1.0812    0.0000 H   0  0  0  0  0  0  0  0  0  0  0  0
    2.2213   -1.9652    0.0000 H   0  0  0  0  0  0  0  0  0  0  0  0
    2.6177   -2.6581    0.0000 H   0  0  0  0  0  0  0  0  0  0  0  0
    3.3361   -3.0728    0.0000 H   0  0  0  0  0  0  0  0  0  0  0  0
    4.1343   -3.0697    0.0000 H   0  0  0  0  0  0  0  0  0  0  0  0
    3.1933    2.5094    0.0000 H   0  0  0  0  0  0  0  0  0  0  0  0
    2.3464    2.2824    0.0000 H   0  0  0  0  0  0  0  0  0  0  0  0
    2.5733    1.4355    0.0000 H   0  0  0  0  0  0  0  0  0  0  0  0
    6.7914   -0.0645    0.0000 H   0  0  0  0  0  0  0  0  0  0  0  0
    7.4269   -0.7232    0.0000 H   0  0  0  0  0  0  0  0  0  0  0  0
    5.8352   -3.6099    0.0000 H   0  0  0  0  0  0  0  0  0  0  0  0
    8.2956   -2.1370    0.0000 H   0  0  0  0  0  0  0  0  0  0  0  0
    7.4944   -3.5901    0.0000 H   0  0  0  0  0  0  0  0  0  0  0  0
    6.5183    2.7605    0.0000 H   0  0  0  0  0  0  0  0  0  0  0  0
    6.2914    3.6074    0.0000 H   0  0  0  0  0  0  0  0  0  0  0  0
    5.4444    3.3805    0.0000 H   0  0  0  0  0  0  0  0  0  0  0  0
 11  1  1  1  0  0  0 
  1 45  1  0  0  0  0 
  2 21  1  0  0  0  0 
  2 26  1  0  0  0  0 
  3 21  2  0  0  0  0 
  4  7  1  0  0  0  0 
  4 14  1  0  0  0  0 
  4 16  1  0  0  0  0 
  5  9  1  0  0  0  0 
  5 11  1  0  0  0  0 
  5 18  1  0  0  0  0 
  6  7  1  0  0  0  0 
  6  8  1  0  0  0  0 
  6 10  1  0  0  0  0 
  6 12  1  6  0  0  0 
  7  9  1  0  0  0  0 
  7 27  1  6  0  0  0 
  8 11  1  0  0  0  0 
  8 28  1  0  0  0  0 
  8 29  1  0  0  0  0 
  9 15  2  0  0  0  0 
 10 13  1  0  0  0  0 
 10 30  1  0  0  0  0 
 10 31  1  0  0  0  0 
 11 21  1  0  0  0  0 
 12 20  1  0  0  0  0 
 12 32  1  0  0  0  0 
 12 33  1  0  0  0  0 
 13 14  1  0  0  0  0 
 13 34  1  0  0  0  0 
 13 35  1  0  0  0  0 
 14 36  1  0  0  0  0 
 14 37  1  0  0  0  0 
 15 17  1  0  0  0  0 
 15 19  1  0  0  0  0 
 16 17  1  0  0  0  0 
 16 38  1  0  0  0  0 
 16 39  1  0  0  0  0 
 17 40  1  0  0  0  0 
 17 41  1  0  0  0  0 
 18 19  1  0  0  0  0 
 18 22  2  0  0  0  0 
 19 23  2  0  0  0  0 
 20 42  1  0  0  0  0 
 20 43  1  0  0  0  0 
 20 44  1  0  0  0  0 
 22 24  1  0  0  0  0 
 22 46  1  0  0  0  0 
 23 25  1  0  0  0  0 
 23 47  1  0  0  0  0 
 24 25  2  0  0  0  0 
 24 48  1  0  0  0  0 
 25 49  1  0  0  0  0 
 26 50  1  0  0  0  0 
 26 51  1  0  0  0  0 
 26 52  1  0  0  0  0 
M  END
> <cdk:Title>
15376

> <cdk:Remark>
null

> <PUBCHEM_COMPOUND_CID>
15376

> <PUBCHEM_COMPOUND_CANONICALIZED>
1

> <PUBCHEM_CACTVS_COMPLEXITY>
598

> <PUBCHEM_CACTVS_HBOND_ACCEPTOR>
4

> <PUBCHEM_CACTVS_HBOND_DONOR>
1

> <PUBCHEM_CACTVS_ROTATABLE_BOND>
3

> <PUBCHEM_CACTVS_SUBSKEYS>
AAADceB7MAAAAAAAAAAAAAAAAAAAAWAAAAA8WLEAAAAAAFix8AAAHgAACAAADizBngYyyPMMFgCoAyTyTAKCgCAhAiAImCH4ZJgLYPLAkbGVYAhkgADbyAe42eOfgAAAAAACAAAAAAAAAAQAAAAAAAAAAA==

> <PUBCHEM_IUPAC_INCHI>
InChI=1S/C21H26N2O3/c1-3-20-10-6-11-22-12-9-15-14-7-4-5-8-16(14)23(17(15)18(20)22)21(25,13-20)19(24)26-2/h4-5,7-8,18,25H,3,6,9-13H2,1-2H3/t18-,20+,21+/m1/s1

> <PUBCHEM_IUPAC_INCHIKEY>
RXPRRQLKFXBCSJ-GIVPXCGWSA-N

> <PUBCHEM_XLOGP3_AA>
2.9

> <PUBCHEM_EXACT_MASS>
354.194343

> <PUBCHEM_MOLECULAR_FORMULA>
C21H26N2O3

> <PUBCHEM_MOLECULAR_WEIGHT>
354.44274

> <PUBCHEM_OPENEYE_CAN_SMILES>
CCC12CCCN3C1C4=C(CC3)C5=CC=CC=C5N4C(C2)(C(=O)OC)O

> <PUBCHEM_OPENEYE_ISO_SMILES>
CC[C@@]12CCCN3[C@@H]1C4=C(CC3)C5=CC=CC=C5N4[C@](C2)(C(=O)OC)O

> <PUBCHEM_CACTVS_TPSA>
54.7

> <PUBCHEM_MONOISOTOPIC_WEIGHT>
354.194343

> <PUBCHEM_TOTAL_CHARGE>
0

> <PUBCHEM_HEAVY_ATOM_COUNT>
26

> <PUBCHEM_ATOM_DEF_STEREO_COUNT>
3

> <PUBCHEM_ATOM_UDEF_STEREO_COUNT>
0

> <PUBCHEM_BOND_DEF_STEREO_COUNT>
0

> <PUBCHEM_BOND_UDEF_STEREO_COUNT>
0

> <PUBCHEM_ISOTOPIC_ATOM_COUNT>
0

> <PUBCHEM_COMPONENT_COUNT>
1

> <PUBCHEM_CACTVS_TAUTO_COUNT>
1

> <PUBCHEM_COORDINATE_TYPE>
1
5
255

> <PUBCHEM_BONDANNOTATIONS>
11  1  5
15  19  8
18  19  8
18  22  8
19  23  8
22  24  8
23  25  8
24  25  8
5  18  8
5  9  8
6  12  6
7  27  6
9  15  8

> <DRUG_ID>
w126

> <DRUG_NAME>
Vincamine

$$$$
5090
  CDK     0927151942
null
 36 38  0  0  0  0  0  0  0  0999 V2000
    3.0000   -2.6739    0.0000 S   0  0  0  0  0  0  0  0  0  0  0  0
    2.5000    2.8649    0.0000 O   0  0  0  0  0  0  0  0  0  0  0  0
    4.0878    3.6739    0.0000 O   0  0  0  0  0  0  0  0  0  0  0  0
    2.0000   -2.6739    0.0000 O   0  0  0  0  0  0  0  0  0  0  0  0
    4.0000   -2.6739    0.0000 O   0  0  0  0  0  0  0  0  0  0  0  0
    3.0000    1.3261    0.0000 C   0  0  0  0  0  0  0  0  0  0  0  0
    3.0000    0.3261    0.0000 C   0  0  0  0  0  0  0  0  0  0  0  0
    3.8090    1.9139    0.0000 C   0  0  0  0  0  0  0  0  0  0  0  0
    2.1910    1.9139    0.0000 C   0  0  0  0  0  0  0  0  0  0  0  0
    3.0000   -1.6739    0.0000 C   0  0  0  0  0  0  0  0  0  0  0  0
    4.7601    1.6048    0.0000 C   0  0  0  0  0  0  0  0  0  0  0  0
    2.1340   -0.1739    0.0000 C   0  0  0  0  0  0  0  0  0  0  0  0
    3.8660   -0.1739    0.0000 C   0  0  0  0  0  0  0  0  0  0  0  0
    3.5000    2.8649    0.0000 C   0  0  0  0  0  0  0  0  0  0  0  0
    2.1340   -1.1739    0.0000 C   0  0  0  0  0  0  0  0  0  0  0  0
    3.8660   -1.1739    0.0000 C   0  0  0  0  0  0  0  0  0  0  0  0
    5.5032    2.2740    0.0000 C   0  0  0  0  0  0  0  0  0  0  0  0
    4.9680    0.6267    0.0000 C   0  0  0  0  0  0  0  0  0  0  0  0
    3.0000   -3.6739    0.0000 C   0  0  0  0  0  0  0  0  0  0  0  0
    6.4543    1.9650    0.0000 C   0  0  0  0  0  0  0  0  0  0  0  0
    5.9190    0.3177    0.0000 C   0  0  0  0  0  0  0  0  0  0  0  0
    6.6622    0.9868    0.0000 C   0  0  0  0  0  0  0  0  0  0  0  0
    1.6246    2.1660    0.0000 H   0  0  0  0  0  0  0  0  0  0  0  0
    1.8810    1.3769    0.0000 H   0  0  0  0  0  0  0  0  0  0  0  0
    1.5970    0.1361    0.0000 H   0  0  0  0  0  0  0  0  0  0  0  0
    4.4030    0.1361    0.0000 H   0  0  0  0  0  0  0  0  0  0  0  0
    1.5970   -1.4839    0.0000 H   0  0  0  0  0  0  0  0  0  0  0  0
    4.4030   -1.4839    0.0000 H   0  0  0  0  0  0  0  0  0  0  0  0
    5.3743    2.8804    0.0000 H   0  0  0  0  0  0  0  0  0  0  0  0
    4.5072    0.2118    0.0000 H   0  0  0  0  0  0  0  0  0  0  0  0
    2.3800   -3.6739    0.0000 H   0  0  0  0  0  0  0  0  0  0  0  0
    3.0000   -4.2939    0.0000 H   0  0  0  0  0  0  0  0  0  0  0  0
    3.6200   -3.6739    0.0000 H   0  0  0  0  0  0  0  0  0  0  0  0
    6.9150    2.3798    0.0000 H   0  0  0  0  0  0  0  0  0  0  0  0
    6.0480   -0.2888    0.0000 H   0  0  0  0  0  0  0  0  0  0  0  0
    7.2518    0.7952    0.0000 H   0  0  0  0  0  0  0  0  0  0  0  0
  1  4  2  0  0  0  0 
  1  5  2  0  0  0  0 
  1 10  1  0  0  0  0 
  1 19  1  0  0  0  0 
  2  9  1  0  0  0  0 
  2 14  1  0  0  0  0 
  3 14  2  0  0  0  0 
  6  7  1  0  0  0  0 
  6  8  2  0  0  0  0 
  6  9  1  0  0  0  0 
  7 12  2  0  0  0  0 
  7 13  1  0  0  0  0 
  8 11  1  0  0  0  0 
  8 14  1  0  0  0  0 
  9 23  1  0  0  0  0 
  9 24  1  0  0  0  0 
 10 15  2  0  0  0  0 
 10 16  1  0  0  0  0 
 11 17  2  0  0  0  0 
 11 18  1  0  0  0  0 
 12 15  1  0  0  0  0 
 12 25  1  0  0  0  0 
 13 16  2  0  0  0  0 
 13 26  1  0  0  0  0 
 15 27  1  0  0  0  0 
 16 28  1  0  0  0  0 
 17 20  1  0  0  0  0 
 17 29  1  0  0  0  0 
 18 21  2  0  0  0  0 
 18 30  1  0  0  0  0 
 19 31  1  0  0  0  0 
 19 32  1  0  0  0  0 
 19 33  1  0  0  0  0 
 20 22  2  0  0  0  0 
 20 34  1  0  0  0  0 
 21 22  1  0  0  0  0 
 21 35  1  0  0  0  0 
 22 36  1  0  0  0  0 
M  END
> <cdk:Title>
5090

> <cdk:Remark>
null

> <PUBCHEM_COMPOUND_CID>
5090

> <PUBCHEM_COMPOUND_CANONICALIZED>
1

> <PUBCHEM_CACTVS_COMPLEXITY>
556

> <PUBCHEM_CACTVS_HBOND_ACCEPTOR>
4

> <PUBCHEM_CACTVS_HBOND_DONOR>
0

> <PUBCHEM_CACTVS_ROTATABLE_BOND>
3

> <PUBCHEM_CACTVS_SUBSKEYS>
AAADccB4OABAAAAAAAAAAAAAAAAAAQAAAAAwYAAAAAAAAAABQAAAGgQAAAAADACg2AKyCYAABAqIAiDSCHBCAAAgCBAIiBkAAMgIJDKgNRCCMAAkwAEIqQeIyKCOEAAAAAAAAAAgAAAAAAAAAAAAAAAAAA==

> <PUBCHEM_IUPAC_OPENEYE_NAME>
3-(4-methylsulfonylphenyl)-4-phenyl-2H-furan-5-one

> <PUBCHEM_IUPAC_CAS_NAME>
3-(4-methylsulfonylphenyl)-4-phenyl-2H-furan-5-one

> <PUBCHEM_IUPAC_NAME>
3-(4-methylsulfonylphenyl)-4-phenyl-2H-furan-5-one

> <PUBCHEM_IUPAC_SYSTEMATIC_NAME>
3-(4-methylsulfonylphenyl)-4-phenyl-2H-furan-5-one

> <PUBCHEM_IUPAC_TRADITIONAL_NAME>
3-(4-mesylphenyl)-4-phenyl-2H-furan-5-one

> <PUBCHEM_IUPAC_INCHI>
InChI=1S/C17H14O4S/c1-22(19,20)14-9-7-12(8-10-14)15-11-21-17(18)16(15)13-5-3-2-4-6-13/h2-10H,11H2,1H3

> <PUBCHEM_IUPAC_INCHIKEY>
RZJQGNCSTQAWON-UHFFFAOYSA-N

> <PUBCHEM_XLOGP3_AA>
2.3

> <PUBCHEM_EXACT_MASS>
314.06128

> <PUBCHEM_MOLECULAR_FORMULA>
C17H14O4S

> <PUBCHEM_MOLECULAR_WEIGHT>
314.35566

> <PUBCHEM_OPENEYE_CAN_SMILES>
CS(=O)(=O)C1=CC=C(C=C1)C2=C(C(=O)OC2)C3=CC=CC=C3

> <PUBCHEM_OPENEYE_ISO_SMILES>
CS(=O)(=O)C1=CC=C(C=C1)C2=C(C(=O)OC2)C3=CC=CC=C3

> <PUBCHEM_CACTVS_TPSA>
68.8

> <PUBCHEM_MONOISOTOPIC_WEIGHT>
314.06128

> <PUBCHEM_TOTAL_CHARGE>
0

> <PUBCHEM_HEAVY_ATOM_COUNT>
22

> <PUBCHEM_ATOM_DEF_STEREO_COUNT>
0

> <PUBCHEM_ATOM_UDEF_STEREO_COUNT>
0

> <PUBCHEM_BOND_DEF_STEREO_COUNT>
0

> <PUBCHEM_BOND_UDEF_STEREO_COUNT>
0

> <PUBCHEM_ISOTOPIC_ATOM_COUNT>
0

> <PUBCHEM_COMPONENT_COUNT>
1

> <PUBCHEM_CACTVS_TAUTO_COUNT>
1

> <PUBCHEM_COORDINATE_TYPE>
1
5
255

> <PUBCHEM_BONDANNOTATIONS>
10  15  8
10  16  8
11  17  8
11  18  8
12  15  8
13  16  8
17  20  8
18  21  8
20  22  8
21  22  8
7  12  8
7  13  8

> <DRUG_ID>
w127

> <DRUG_NAME>
Rofecoxib

$$$$
44668
  CDK     0927151942
null
 37 39  0  0  0  0  0  0  0  0999 V2000
    6.8994    2.8089    0.0000 N   0  0  0  0  0  0  0  0  0  0  0  0
    4.6783   -2.8089    0.0000 N   0  0  0  0  0  0  0  0  0  0  0  0
    6.2781    0.9078    0.0000 C   0  0  0  0  0  0  0  0  0  0  0  0
    5.6103    1.6521    0.0000 C   0  0  0  0  0  0  0  0  0  0  0  0
    7.2566    1.1141    0.0000 C   0  0  0  0  0  0  0  0  0  0  0  0
    5.9674   -0.0427    0.0000 C   0  0  0  0  0  0  0  0  0  0  0  0
    5.9209    2.6027    0.0000 C   0  0  0  0  0  0  0  0  0  0  0  0
    7.5673    2.0646    0.0000 C   0  0  0  0  0  0  0  0  0  0  0  0
    4.9889   -0.2489    0.0000 C   0  0  0  0  0  0  0  0  0  0  0  0
    4.6783   -1.1994    0.0000 C   0  0  0  0  0  0  0  0  0  0  0  0
    3.7320   -1.5042    0.0000 C   0  0  0  0  0  0  0  0  0  0  0  0
    5.2619   -2.0042    0.0000 C   0  0  0  0  0  0  0  0  0  0  0  0
    3.7320   -2.5042    0.0000 C   0  0  0  0  0  0  0  0  0  0  0  0
    2.8660   -1.0042    0.0000 C   0  0  0  0  0  0  0  0  0  0  0  0
    2.8660   -3.0042    0.0000 C   0  0  0  0  0  0  0  0  0  0  0  0
    2.0000   -1.5042    0.0000 C   0  0  0  0  0  0  0  0  0  0  0  0
    2.0000   -2.5042    0.0000 C   0  0  0  0  0  0  0  0  0  0  0  0
    5.6714    0.7800    0.0000 H   0  0  0  0  0  0  0  0  0  0  0  0
    7.2772    0.4944    0.0000 H   0  0  0  0  0  0  0  0  0  0  0  0
    7.8704    1.0267    0.0000 H   0  0  0  0  0  0  0  0  0  0  0  0
    5.0633    1.9442    0.0000 H   0  0  0  0  0  0  0  0  0  0  0  0
    5.2277    1.1642    0.0000 H   0  0  0  0  0  0  0  0  0  0  0  0
    5.9880   -0.6623    0.0000 H   0  0  0  0  0  0  0  0  0  0  0  0
    6.5812   -0.1300    0.0000 H   0  0  0  0  0  0  0  0  0  0  0  0
    5.9004    3.2223    0.0000 H   0  0  0  0  0  0  0  0  0  0  0  0
    5.3071    2.6900    0.0000 H   0  0  0  0  0  0  0  0  0  0  0  0
    8.1142    1.7726    0.0000 H   0  0  0  0  0  0  0  0  0  0  0  0
    7.9498    2.5525    0.0000 H   0  0  0  0  0  0  0  0  0  0  0  0
    4.9684    0.3708    0.0000 H   0  0  0  0  0  0  0  0  0  0  0  0
    4.3751   -0.1615    0.0000 H   0  0  0  0  0  0  0  0  0  0  0  0
    7.0920    3.3982    0.0000 H   0  0  0  0  0  0  0  0  0  0  0  0
    5.8819   -2.0042    0.0000 H   0  0  0  0  0  0  0  0  0  0  0  0
    4.8709   -3.3982    0.0000 H   0  0  0  0  0  0  0  0  0  0  0  0
    2.8660   -0.3842    0.0000 H   0  0  0  0  0  0  0  0  0  0  0  0
    2.8660   -3.6242    0.0000 H   0  0  0  0  0  0  0  0  0  0  0  0
    1.4631   -1.1942    0.0000 H   0  0  0  0  0  0  0  0  0  0  0  0
    1.4631   -2.8142    0.0000 H   0  0  0  0  0  0  0  0  0  0  0  0
  1  7  1  0  0  0  0 
  1  8  1  0  0  0  0 
  1 31  1  0  0  0  0 
  2 12  1  0  0  0  0 
  2 13  1  0  0  0  0 
  2 33  1  0  0  0  0 
  3  4  1  0  0  0  0 
  3  5  1  0  0  0  0 
  3  6  1  0  0  0  0 
  3 18  1  0  0  0  0 
  4  7  1  0  0  0  0 
  4 21  1  0  0  0  0 
  4 22  1  0  0  0  0 
  5  8  1  0  0  0  0 
  5 19  1  0  0  0  0 
  5 20  1  0  0  0  0 
  6  9  1  0  0  0  0 
  6 23  1  0  0  0  0 
  6 24  1  0  0  0  0 
  7 25  1  0  0  0  0 
  7 26  1  0  0  0  0 
  8 27  1  0  0  0  0 
  8 28  1  0  0  0  0 
  9 10  1  0  0  0  0 
  9 29  1  0  0  0  0 
  9 30  1  0  0  0  0 
 10 11  1  0  0  0  0 
 10 12  2  0  0  0  0 
 11 13  1  0  0  0  0 
 11 14  2  0  0  0  0 
 12 32  1  0  0  0  0 
 13 15  2  0  0  0  0 
 14 16  1  0  0  0  0 
 14 34  1  0  0  0  0 
 15 17  1  0  0  0  0 
 15 35  1  0  0  0  0 
 16 17  2  0  0  0  0 
 16 36  1  0  0  0  0 
 17 37  1  0  0  0  0 
M  END
> <cdk:Title>
44668

> <cdk:Remark>
null

> <PUBCHEM_COMPOUND_CID>
44668

> <PUBCHEM_COMPOUND_CANONICALIZED>
1

> <PUBCHEM_CACTVS_COMPLEXITY>
235

> <PUBCHEM_CACTVS_HBOND_ACCEPTOR>
1

> <PUBCHEM_CACTVS_HBOND_DONOR>
2

> <PUBCHEM_CACTVS_ROTATABLE_BOND>
3

> <PUBCHEM_CACTVS_SUBSKEYS>
AAADceBzAAAAAAAAAAAAAAAAAAAAAWAAAAA8QAAAAAAAAFgB8AAAHAAQAAAADQjBHgQ8wPLJkACgAzRnRACCgCAxAiAI2aA4ZJgIIOLAkZGEIAhgkADIyAcQgMAOgAAAAAACAAAAAAAAAAQAAAAAAAAAAA==

> <PUBCHEM_IUPAC_OPENEYE_NAME>
3-[2-(4-piperidyl)ethyl]-1H-indole

> <PUBCHEM_IUPAC_CAS_NAME>
3-[2-(4-piperidinyl)ethyl]-1H-indole

> <PUBCHEM_IUPAC_NAME>
3-(2-piperidin-4-ylethyl)-1H-indole

> <PUBCHEM_IUPAC_SYSTEMATIC_NAME>
3-(2-piperidin-4-ylethyl)-1H-indole

> <PUBCHEM_IUPAC_TRADITIONAL_NAME>
3-[2-(4-piperidyl)ethyl]-1H-indole

> <PUBCHEM_IUPAC_INCHI>
InChI=1S/C15H20N2/c1-2-4-15-14(3-1)13(11-17-15)6-5-12-7-9-16-10-8-12/h1-4,11-12,16-17H,5-10H2

> <PUBCHEM_IUPAC_INCHIKEY>
SADQVAVFGNTEOD-UHFFFAOYSA-N

> <PUBCHEM_XLOGP3>
3.3

> <PUBCHEM_EXACT_MASS>
228.162649

> <PUBCHEM_MOLECULAR_FORMULA>
C15H20N2

> <PUBCHEM_MOLECULAR_WEIGHT>
228.3327

> <PUBCHEM_OPENEYE_CAN_SMILES>
C1CNCCC1CCC2=CNC3=CC=CC=C32

> <PUBCHEM_OPENEYE_ISO_SMILES>
C1CNCCC1CCC2=CNC3=CC=CC=C32

> <PUBCHEM_CACTVS_TPSA>
27.8

> <PUBCHEM_MONOISOTOPIC_WEIGHT>
228.162649

> <PUBCHEM_TOTAL_CHARGE>
0

> <PUBCHEM_HEAVY_ATOM_COUNT>
17

> <PUBCHEM_ATOM_DEF_STEREO_COUNT>
0

> <PUBCHEM_ATOM_UDEF_STEREO_COUNT>
0

> <PUBCHEM_BOND_DEF_STEREO_COUNT>
0

> <PUBCHEM_BOND_UDEF_STEREO_COUNT>
0

> <PUBCHEM_ISOTOPIC_ATOM_COUNT>
0

> <PUBCHEM_COMPONENT_COUNT>
1

> <PUBCHEM_CACTVS_TAUTO_COUNT>
1

> <PUBCHEM_COORDINATE_TYPE>
1
5
255

> <PUBCHEM_BONDANNOTATIONS>
10  11  8
10  12  8
11  13  8
11  14  8
13  15  8
14  16  8
15  17  8
16  17  8
2  12  8
2  13  8

> <DRUG_ID>
w128

> <DRUG_NAME>
Indalpine

$$$$
446156
  CDK     0927151942
null
 67 68  0  0  0  0  0  0  0  0999 V2000
   10.3312    3.6160    0.0000 F   0  0  0  0  0  0  0  0  0  0  0  0
   12.9292   -0.8840    0.0000 O   0  0  0  0  0  0  0  0  0  0  0  0
    6.8671    0.6160    0.0000 O   0  0  0  0  0  0  0  0  0  0  0  0
    5.1350    0.6160    0.0000 O   0  0  0  0  0  0  0  0  0  0  0  0
    2.5369   -0.8840    0.0000 O   0  0  0  0  0  0  0  0  0  0  0  0
    3.4030    0.6160    0.0000 O   0  0  0  0  0  0  0  0  0  0  0  0
   10.3312   -2.3840    0.0000 N   0  0  0  0  0  0  0  0  0  0  0  0
   11.1972   -1.8840    0.0000 C   0  0  0  0  0  0  0  0  0  0  0  0
    9.4651   -1.8840    0.0000 C   0  0  0  0  0  0  0  0  0  0  0  0
   11.1972   -0.8840    0.0000 C   0  0  0  0  0  0  0  0  0  0  0  0
    9.4651   -0.8840    0.0000 C   0  0  0  0  0  0  0  0  0  0  0  0
   10.3312   -0.3840    0.0000 C   0  0  0  0  0  0  0  0  0  0  0  0
    8.9651   -2.7500    0.0000 C   0  0  0  0  0  0  0  0  0  0  0  0
   12.0632   -2.3840    0.0000 C   0  0  0  0  0  0  0  0  0  0  0  0
   12.0632   -0.3840    0.0000 C   0  0  0  0  0  0  0  0  0  0  0  0
   10.3312    0.6160    0.0000 C   0  0  0  0  0  0  0  0  0  0  0  0
    8.5991   -0.3840    0.0000 C   0  0  0  0  0  0  0  0  0  0  0  0
    6.8671   -0.3840    0.0000 C   0  0  1  0  0  0  0  0  0  0  0  0
    9.4652   -3.6160    0.0000 C   0  0  0  0  0  0  0  0  0  0  0  0
    7.9651   -2.7499    0.0000 C   0  0  0  0  0  0  0  0  0  0  0  0
   12.0632   -3.3840    0.0000 C   0  0  0  0  0  0  0  0  0  0  0  0
   12.9292   -1.8840    0.0000 C   0  0  0  0  0  0  0  0  0  0  0  0
    6.0010   -0.8840    0.0000 C   0  0  0  0  0  0  0  0  0  0  0  0
    7.7331   -0.8840    0.0000 C   0  0  0  0  0  0  0  0  0  0  0  0
    5.1350   -0.3840    0.0000 C   0  0  2  0  0  0  0  0  0  0  0  0
   11.1972    1.1160    0.0000 C   0  0  0  0  0  0  0  0  0  0  0  0
    9.4651    1.1160    0.0000 C   0  0  0  0  0  0  0  0  0  0  0  0
    4.2690   -0.8840    0.0000 C   0  0  0  0  0  0  0  0  0  0  0  0
   11.1972    2.1160    0.0000 C   0  0  0  0  0  0  0  0  0  0  0  0
    9.4651    2.1160    0.0000 C   0  0  0  0  0  0  0  0  0  0  0  0
   10.3312    2.6160    0.0000 C   0  0  0  0  0  0  0  0  0  0  0  0
   13.7953   -0.3840    0.0000 C   0  0  0  0  0  0  0  0  0  0  0  0
    3.4030   -0.3840    0.0000 C   0  0  0  0  0  0  0  0  0  0  0  0
    8.6551   -3.2869    0.0000 H   0  0  0  0  0  0  0  0  0  0  0  0
   12.6002   -2.6940    0.0000 H   0  0  0  0  0  0  0  0  0  0  0  0
   12.4617    0.0910    0.0000 H   0  0  0  0  0  0  0  0  0  0  0  0
   11.6647    0.0910    0.0000 H   0  0  0  0  0  0  0  0  0  0  0  0
    8.5991    0.2360    0.0000 H   0  0  0  0  0  0  0  0  0  0  0  0
    6.3301   -0.0740    0.0000 H   0  0  0  0  0  0  0  0  0  0  0  0
    5.6025   -1.3589    0.0000 H   0  0  0  0  0  0  0  0  0  0  0  0
    6.3996   -1.3589    0.0000 H   0  0  0  0  0  0  0  0  0  0  0  0
    8.9283   -3.9260    0.0000 H   0  0  0  0  0  0  0  0  0  0  0  0
    9.7752   -4.1530    0.0000 H   0  0  0  0  0  0  0  0  0  0  0  0
   10.0021   -3.3060    0.0000 H   0  0  0  0  0  0  0  0  0  0  0  0
    7.9651   -2.1299    0.0000 H   0  0  0  0  0  0  0  0  0  0  0  0
    7.3451   -2.7499    0.0000 H   0  0  0  0  0  0  0  0  0  0  0  0
    7.9650   -3.3699    0.0000 H   0  0  0  0  0  0  0  0  0  0  0  0
   13.2392   -2.4209    0.0000 H   0  0  0  0  0  0  0  0  0  0  0  0
   13.4662   -1.5740    0.0000 H   0  0  0  0  0  0  0  0  0  0  0  0
   12.6192   -1.3470    0.0000 H   0  0  0  0  0  0  0  0  0  0  0  0
   11.4432   -3.3840    0.0000 H   0  0  0  0  0  0  0  0  0  0  0  0
   12.0632   -4.0040    0.0000 H   0  0  0  0  0  0  0  0  0  0  0  0
   12.6832   -3.3840    0.0000 H   0  0  0  0  0  0  0  0  0  0  0  0
    7.4232   -1.4210    0.0000 H   0  0  0  0  0  0  0  0  0  0  0  0
    5.6720   -0.0740    0.0000 H   0  0  0  0  0  0  0  0  0  0  0  0
   11.7341    0.8060    0.0000 H   0  0  0  0  0  0  0  0  0  0  0  0
    8.9282    0.8060    0.0000 H   0  0  0  0  0  0  0  0  0  0  0  0
    3.8705   -1.3589    0.0000 H   0  0  0  0  0  0  0  0  0  0  0  0
    4.6675   -1.3589    0.0000 H   0  0  0  0  0  0  0  0  0  0  0  0
   11.7341    2.4260    0.0000 H   0  0  0  0  0  0  0  0  0  0  0  0
    8.9282    2.4260    0.0000 H   0  0  0  0  0  0  0  0  0  0  0  0
    6.3301    0.9260    0.0000 H   0  0  0  0  0  0  0  0  0  0  0  0
    4.5981    0.9260    0.0000 H   0  0  0  0  0  0  0  0  0  0  0  0
   14.1053   -0.9209    0.0000 H   0  0  0  0  0  0  0  0  0  0  0  0
   14.3322   -0.0740    0.0000 H   0  0  0  0  0  0  0  0  0  0  0  0
   13.4853    0.1530    0.0000 H   0  0  0  0  0  0  0  0  0  0  0  0
    2.0000   -0.5740    0.0000 H   0  0  0  0  0  0  0  0  0  0  0  0
  1 31  1  0  0  0  0 
  2 15  1  0  0  0  0 
  2 32  1  0  0  0  0 
 18  3  1  6  0  0  0 
  3 62  1  0  0  0  0 
 25  4  1  6  0  0  0 
  4 63  1  0  0  0  0 
  5 33  1  0  0  0  0 
  5 67  1  0  0  0  0 
  6 33  2  0  0  0  0 
  7  8  2  0  0  0  0 
  7  9  1  0  0  0  0 
  8 10  1  0  0  0  0 
  8 14  1  0  0  0  0 
  9 11  2  0  0  0  0 
  9 13  1  0  0  0  0 
 10 12  2  0  0  0  0 
 10 15  1  0  0  0  0 
 11 12  1  0  0  0  0 
 11 17  1  0  0  0  0 
 12 16  1  0  0  0  0 
 13 19  1  0  0  0  0 
 13 20  1  0  0  0  0 
 13 34  1  0  0  0  0 
 14 21  1  0  0  0  0 
 14 22  1  0  0  0  0 
 14 35  1  0  0  0  0 
 15 36  1  0  0  0  0 
 15 37  1  0  0  0  0 
 16 26  2  0  0  0  0 
 16 27  1  0  0  0  0 
 17 24  2  0  0  0  0 
 17 38  1  0  0  0  0 
 18 23  1  0  0  0  0 
 18 24  1  0  0  0  0 
 18 39  1  0  0  0  0 
 19 42  1  0  0  0  0 
 19 43  1  0  0  0  0 
 19 44  1  0  0  0  0 
 20 45  1  0  0  0  0 
 20 46  1  0  0  0  0 
 20 47  1  0  0  0  0 
 21 51  1  0  0  0  0 
 21 52  1  0  0  0  0 
 21 53  1  0  0  0  0 
 22 48  1  0  0  0  0 
 22 49  1  0  0  0  0 
 22 50  1  0  0  0  0 
 23 25  1  0  0  0  0 
 23 40  1  0  0  0  0 
 23 41  1  0  0  0  0 
 24 54  1  0  0  0  0 
 25 28  1  0  0  0  0 
 25 55  1  0  0  0  0 
 26 29  1  0  0  0  0 
 26 56  1  0  0  0  0 
 27 30  2  0  0  0  0 
 27 57  1  0  0  0  0 
 28 33  1  0  0  0  0 
 28 58  1  0  0  0  0 
 28 59  1  0  0  0  0 
 29 31  2  0  0  0  0 
 29 60  1  0  0  0  0 
 30 31  1  0  0  0  0 
 30 61  1  0  0  0  0 
 32 64  1  0  0  0  0 
 32 65  1  0  0  0  0 
 32 66  1  0  0  0  0 
M  END
> <cdk:Title>
446156

> <cdk:Remark>
null

> <PUBCHEM_COMPOUND_CID>
446156

> <PUBCHEM_COMPOUND_CANONICALIZED>
1

> <PUBCHEM_CACTVS_COMPLEXITY>
620

> <PUBCHEM_CACTVS_HBOND_ACCEPTOR>
7

> <PUBCHEM_CACTVS_HBOND_DONOR>
3

> <PUBCHEM_CACTVS_ROTATABLE_BOND>
11

> <PUBCHEM_CACTVS_SUBSKEYS>
AAADcfB6OQAAAAAAAAAAAAAAAAAAAAAAAAA8QAAAAAAAAAABwAAAHwAACAAADRyhngoyiJIIFgCoAyTyTACCgCAhACAImCEwTJgINnbAsZmEcAhn4AHI+AeY/OdOgAAAAAAAAAAAAAAAAAAAAAAAAAAAAA==

> <PUBCHEM_IUPAC_OPENEYE_NAME>
(E,3R,5S)-7-[4-(4-fluorophenyl)-2,6-diisopropyl-5-(methoxymethyl)-3-pyridyl]-3,5-dihydroxy-hept-6-enoic acid

> <PUBCHEM_IUPAC_CAS_NAME>
(E,3R,5S)-7-[4-(4-fluorophenyl)-5-(methoxymethyl)-2,6-di(propan-2-yl)-3-pyridinyl]-3,5-dihydroxy-6-heptenoic acid

> <PUBCHEM_IUPAC_NAME>
(E,3R,5S)-7-[4-(4-fluorophenyl)-5-(methoxymethyl)-2,6-di(propan-2-yl)pyridin-3-yl]-3,5-dihydroxyhept-6-enoic acid

> <PUBCHEM_IUPAC_SYSTEMATIC_NAME>
(E,3R,5S)-7-[4-(4-fluorophenyl)-5-(methoxymethyl)-2,6-di(propan-2-yl)pyridin-3-yl]-3,5-bis(oxidanyl)hept-6-enoic acid

> <PUBCHEM_IUPAC_TRADITIONAL_NAME>
(E,3R,5S)-7-[4-(4-fluorophenyl)-2,6-diisopropyl-5-(methoxymethyl)-3-pyridyl]-3,5-dihydroxy-hept-6-enoic acid

> <PUBCHEM_IUPAC_INCHI>
InChI=1S/C26H34FNO5/c1-15(2)25-21(11-10-19(29)12-20(30)13-23(31)32)24(17-6-8-18(27)9-7-17)22(14-33-5)26(28-25)16(3)4/h6-11,15-16,19-20,29-30H,12-14H2,1-5H3,(H,31,32)/b11-10+/t19-,20-/m1/s1

> <PUBCHEM_IUPAC_INCHIKEY>
SEERZIQQUAZTOL-ANMDKAQQSA-N

> <PUBCHEM_XLOGP3_AA>
3.6

> <PUBCHEM_EXACT_MASS>
459.242101

> <PUBCHEM_MOLECULAR_FORMULA>
C26H34FNO5

> <PUBCHEM_MOLECULAR_WEIGHT>
459.550263

> <PUBCHEM_OPENEYE_CAN_SMILES>
CC(C)C1=C(C(=C(C(=N1)C(C)C)C=CC(CC(CC(=O)O)O)O)C2=CC=C(C=C2)F)COC

> <PUBCHEM_OPENEYE_ISO_SMILES>
CC(C)C1=C(C(=C(C(=N1)C(C)C)/C=C/[C@H](C[C@H](CC(=O)O)O)O)C2=CC=C(C=C2)F)COC

> <PUBCHEM_CACTVS_TPSA>
99.9

> <PUBCHEM_MONOISOTOPIC_WEIGHT>
459.242101

> <PUBCHEM_TOTAL_CHARGE>
0

> <PUBCHEM_HEAVY_ATOM_COUNT>
33

> <PUBCHEM_ATOM_DEF_STEREO_COUNT>
2

> <PUBCHEM_ATOM_UDEF_STEREO_COUNT>
0

> <PUBCHEM_BOND_DEF_STEREO_COUNT>
1

> <PUBCHEM_BOND_UDEF_STEREO_COUNT>
0

> <PUBCHEM_ISOTOPIC_ATOM_COUNT>
0

> <PUBCHEM_COMPONENT_COUNT>
1

> <PUBCHEM_CACTVS_TAUTO_COUNT>
4

> <PUBCHEM_COORDINATE_TYPE>
1
5
255

> <PUBCHEM_BONDANNOTATIONS>
10  12  8
11  12  8
16  26  8
16  27  8
26  29  8
27  30  8
29  31  8
18  3  6
30  31  8
25  4  6
7  8  8
7  9  8
8  10  8
9  11  8

> <DRUG_ID>
w129

> <DRUG_NAME>
Cerivastatin

$$$$
3351
  CDK     0927151942
null
 48 51  0  0  0  0  0  0  0  0999 V2000
    2.0000    1.5000    0.0000 Cl  0  0  0  0  0  0  0  0  0  0  0  0
    7.1962   -1.5000    0.0000 O   0  0  0  0  0  0  0  0  0  0  0  0
   14.2045    1.3047    0.0000 O   0  0  0  0  0  0  0  0  0  0  0  0
    5.4641   -0.5000    0.0000 O   0  0  0  0  0  0  0  0  0  0  0  0
   14.2045   -0.3047    0.0000 O   0  0  0  0  0  0  0  0  0  0  0  0
    9.7942    1.0000    0.0000 N   0  0  0  0  0  0  0  0  0  0  0  0
    8.0622    0.0000    0.0000 N   0  0  0  0  0  0  0  0  0  0  0  0
    8.9282    1.5000    0.0000 C   0  0  0  0  0  0  0  0  0  0  0  0
    9.7942    0.0000    0.0000 C   0  0  0  0  0  0  0  0  0  0  0  0
    8.9282   -0.5000    0.0000 C   0  0  0  0  0  0  0  0  0  0  0  0
    8.0622    1.0000    0.0000 C   0  0  0  0  0  0  0  0  0  0  0  0
   10.6603    1.5000    0.0000 C   0  0  0  0  0  0  0  0  0  0  0  0
   11.5263    1.0000    0.0000 C   0  0  0  0  0  0  0  0  0  0  0  0
    7.1962   -0.5000    0.0000 C   0  0  0  0  0  0  0  0  0  0  0  0
   12.3923    1.5000    0.0000 C   0  0  0  0  0  0  0  0  0  0  0  0
   11.5263    0.0000    0.0000 C   0  0  0  0  0  0  0  0  0  0  0  0
    6.3301    0.0000    0.0000 C   0  0  0  0  0  0  0  0  0  0  0  0
   13.2583    1.0000    0.0000 C   0  0  0  0  0  0  0  0  0  0  0  0
   13.2583    0.0000    0.0000 C   0  0  0  0  0  0  0  0  0  0  0  0
   12.3923   -0.5000    0.0000 C   0  0  0  0  0  0  0  0  0  0  0  0
   14.7882    0.5000    0.0000 C   0  0  0  0  0  0  0  0  0  0  0  0
    4.5981    0.0000    0.0000 C   0  0  0  0  0  0  0  0  0  0  0  0
    4.5981    1.0000    0.0000 C   0  0  0  0  0  0  0  0  0  0  0  0
    3.7320   -0.5000    0.0000 C   0  0  0  0  0  0  0  0  0  0  0  0
    3.7320    1.5000    0.0000 C   0  0  0  0  0  0  0  0  0  0  0  0
    2.8660    0.0000    0.0000 C   0  0  0  0  0  0  0  0  0  0  0  0
    2.8660    1.0000    0.0000 C   0  0  0  0  0  0  0  0  0  0  0  0
   10.0063   -0.5826    0.0000 H   0  0  0  0  0  0  0  0  0  0  0  0
   10.4048    0.1077    0.0000 H   0  0  0  0  0  0  0  0  0  0  0  0
    9.3267    1.9750    0.0000 H   0  0  0  0  0  0  0  0  0  0  0  0
    8.5297    1.9750    0.0000 H   0  0  0  0  0  0  0  0  0  0  0  0
    7.8501    1.5826    0.0000 H   0  0  0  0  0  0  0  0  0  0  0  0
    7.4516    0.8923    0.0000 H   0  0  0  0  0  0  0  0  0  0  0  0
    8.5297   -0.9749    0.0000 H   0  0  0  0  0  0  0  0  0  0  0  0
    9.3267   -0.9749    0.0000 H   0  0  0  0  0  0  0  0  0  0  0  0
   11.0588    1.9750    0.0000 H   0  0  0  0  0  0  0  0  0  0  0  0
   10.2617    1.9750    0.0000 H   0  0  0  0  0  0  0  0  0  0  0  0
   12.3923    2.1200    0.0000 H   0  0  0  0  0  0  0  0  0  0  0  0
   10.9893   -0.3100    0.0000 H   0  0  0  0  0  0  0  0  0  0  0  0
    6.7287    0.4749    0.0000 H   0  0  0  0  0  0  0  0  0  0  0  0
    5.9316    0.4749    0.0000 H   0  0  0  0  0  0  0  0  0  0  0  0
   12.3923   -1.1200    0.0000 H   0  0  0  0  0  0  0  0  0  0  0  0
   15.2490    0.0853    0.0000 H   0  0  0  0  0  0  0  0  0  0  0  0
   15.2490    0.9147    0.0000 H   0  0  0  0  0  0  0  0  0  0  0  0
    5.1350    1.3100    0.0000 H   0  0  0  0  0  0  0  0  0  0  0  0
    3.7320   -1.1200    0.0000 H   0  0  0  0  0  0  0  0  0  0  0  0
    3.7320    2.1200    0.0000 H   0  0  0  0  0  0  0  0  0  0  0  0
    2.3291   -0.3100    0.0000 H   0  0  0  0  0  0  0  0  0  0  0  0
  1 27  1  0  0  0  0 
  2 14  2  0  0  0  0 
  3 18  1  0  0  0  0 
  3 21  1  0  0  0  0 
  4 17  1  0  0  0  0 
  4 22  1  0  0  0  0 
  5 19  1  0  0  0  0 
  5 21  1  0  0  0  0 
  6  8  1  0  0  0  0 
  6  9  1  0  0  0  0 
  6 12  1  0  0  0  0 
  7 10  1  0  0  0  0 
  7 11  1  0  0  0  0 
  7 14  1  0  0  0  0 
  8 11  1  0  0  0  0 
  8 30  1  0  0  0  0 
  8 31  1  0  0  0  0 
  9 10  1  0  0  0  0 
  9 28  1  0  0  0  0 
  9 29  1  0  0  0  0 
 10 34  1  0  0  0  0 
 10 35  1  0  0  0  0 
 11 32  1  0  0  0  0 
 11 33  1  0  0  0  0 
 12 13  1  0  0  0  0 
 12 36  1  0  0  0  0 
 12 37  1  0  0  0  0 
 13 15  2  0  0  0  0 
 13 16  1  0  0  0  0 
 14 17  1  0  0  0  0 
 15 18  1  0  0  0  0 
 15 38  1  0  0  0  0 
 16 20  2  0  0  0  0 
 16 39  1  0  0  0  0 
 17 40  1  0  0  0  0 
 17 41  1  0  0  0  0 
 18 19  2  0  0  0  0 
 19 20  1  0  0  0  0 
 20 42  1  0  0  0  0 
 21 43  1  0  0  0  0 
 21 44  1  0  0  0  0 
 22 23  2  0  0  0  0 
 22 24  1  0  0  0  0 
 23 25  1  0  0  0  0 
 23 45  1  0  0  0  0 
 24 26  2  0  0  0  0 
 24 46  1  0  0  0  0 
 25 27  2  0  0  0  0 
 25 47  1  0  0  0  0 
 26 27  1  0  0  0  0 
 26 48  1  0  0  0  0 
M  END
> <cdk:Title>
3351

> <cdk:Remark>
null

> <PUBCHEM_COMPOUND_CID>
3351

> <PUBCHEM_COMPOUND_CANONICALIZED>
1

> <PUBCHEM_CACTVS_COMPLEXITY>
492

> <PUBCHEM_CACTVS_HBOND_ACCEPTOR>
5

> <PUBCHEM_CACTVS_HBOND_DONOR>
0

> <PUBCHEM_CACTVS_ROTATABLE_BOND>
5

> <PUBCHEM_CACTVS_SUBSKEYS>
AAADceB7OAAEAAAAAAAAAAAAAAAAASAAAAA8YIAAAAAAAEgBQAAAHgIAAAAADAbhmCcwDoMABACIAiFSEAKCCAAgJQAIiABOjogfZiKFsx+3OCrkxhGeqAew0BIOICABAAAAQABAQAIAAACAAAAAAAAAAA==

> <PUBCHEM_IUPAC_OPENEYE_NAME>
1-[4-(1,3-benzodioxol-5-ylmethyl)piperazin-1-yl]-2-(4-chlorophenoxy)ethanone

> <PUBCHEM_IUPAC_CAS_NAME>
1-[4-(1,3-benzodioxol-5-ylmethyl)-1-piperazinyl]-2-(4-chlorophenoxy)ethanone

> <PUBCHEM_IUPAC_NAME>
1-[4-(1,3-benzodioxol-5-ylmethyl)piperazin-1-yl]-2-(4-chlorophenoxy)ethanone

> <PUBCHEM_IUPAC_SYSTEMATIC_NAME>
1-[4-(1,3-benzodioxol-5-ylmethyl)piperazin-1-yl]-2-(4-chloranylphenoxy)ethanone

> <PUBCHEM_IUPAC_TRADITIONAL_NAME>
2-(4-chlorophenoxy)-1-(4-piperonylpiperazino)ethanone

> <PUBCHEM_IUPAC_INCHI>
InChI=1S/C20H21ClN2O4/c21-16-2-4-17(5-3-16)25-13-20(24)23-9-7-22(8-10-23)12-15-1-6-18-19(11-15)27-14-26-18/h1-6,11H,7-10,12-14H2

> <PUBCHEM_IUPAC_INCHIKEY>
BFUJHVVEMMWLHC-UHFFFAOYSA-N

> <PUBCHEM_XLOGP3_AA>
3.2

> <PUBCHEM_EXACT_MASS>
388.118985

> <PUBCHEM_MOLECULAR_FORMULA>
C20H21ClN2O4

> <PUBCHEM_MOLECULAR_WEIGHT>
388.84474

> <PUBCHEM_OPENEYE_CAN_SMILES>
C1CN(CCN1CC2=CC3=C(C=C2)OCO3)C(=O)COC4=CC=C(C=C4)Cl

> <PUBCHEM_OPENEYE_ISO_SMILES>
C1CN(CCN1CC2=CC3=C(C=C2)OCO3)C(=O)COC4=CC=C(C=C4)Cl

> <PUBCHEM_CACTVS_TPSA>
51.2

> <PUBCHEM_MONOISOTOPIC_WEIGHT>
388.118985

> <PUBCHEM_TOTAL_CHARGE>
0

> <PUBCHEM_HEAVY_ATOM_COUNT>
27

> <PUBCHEM_ATOM_DEF_STEREO_COUNT>
0

> <PUBCHEM_ATOM_UDEF_STEREO_COUNT>
0

> <PUBCHEM_BOND_DEF_STEREO_COUNT>
0

> <PUBCHEM_BOND_UDEF_STEREO_COUNT>
0

> <PUBCHEM_ISOTOPIC_ATOM_COUNT>
0

> <PUBCHEM_COMPONENT_COUNT>
1

> <PUBCHEM_CACTVS_TAUTO_COUNT>
1

> <PUBCHEM_COORDINATE_TYPE>
1
5
255

> <PUBCHEM_BONDANNOTATIONS>
13  15  8
13  16  8
15  18  8
16  20  8
18  19  8
19  20  8
22  23  8
22  24  8
23  25  8
24  26  8
25  27  8
26  27  8

> <DRUG_ID>
w13

> <DRUG_NAME>
Fipexide

$$$$
134044
  CDK     0927151942
null
 48 49  0  0  0  0  0  0  0  0999 V2000
    6.8671    1.4400    0.0000 O   0  0  0  0  0  0  0  0  0  0  0  0
    2.5369    2.9400    0.0000 O   0  0  0  0  0  0  0  0  0  0  0  0
    3.4030    4.4400    0.0000 O   0  0  0  0  0  0  0  0  0  0  0  0
    6.8671   -0.5600    0.0000 N   0  0  0  0  0  0  0  0  0  0  0  0
    5.1350    4.4400    0.0000 N   0  0  0  0  0  0  0  0  0  0  0  0
    6.8671   -1.5600    0.0000 C   0  0  1  0  0  0  0  0  0  0  0  0
    7.7331   -2.0600    0.0000 C   0  0  0  0  0  0  0  0  0  0  0  0
    6.0010   -0.0600    0.0000 C   0  0  0  0  0  0  0  0  0  0  0  0
    7.7331   -3.0600    0.0000 C   0  0  0  0  0  0  0  0  0  0  0  0
    6.0010    0.9400    0.0000 C   0  0  1  0  0  0  0  0  0  0  0  0
    6.0010   -2.0600    0.0000 C   0  0  0  0  0  0  0  0  0  0  0  0
    5.1350    1.4400    0.0000 C   0  0  0  0  0  0  0  0  0  0  0  0
    8.5991   -3.5600    0.0000 C   0  0  0  0  0  0  0  0  0  0  0  0
    5.1350    2.4400    0.0000 C   0  0  0  0  0  0  0  0  0  0  0  0
    4.2690    0.9400    0.0000 C   0  0  0  0  0  0  0  0  0  0  0  0
    8.5991   -4.5600    0.0000 C   0  0  0  0  0  0  0  0  0  0  0  0
    9.4651   -3.0600    0.0000 C   0  0  0  0  0  0  0  0  0  0  0  0
    4.2690    2.9400    0.0000 C   0  0  0  0  0  0  0  0  0  0  0  0
    3.4030    1.4400    0.0000 C   0  0  0  0  0  0  0  0  0  0  0  0
    3.4030    2.4400    0.0000 C   0  0  0  0  0  0  0  0  0  0  0  0
    9.4651   -5.0600    0.0000 C   0  0  0  0  0  0  0  0  0  0  0  0
   10.3312   -3.5600    0.0000 C   0  0  0  0  0  0  0  0  0  0  0  0
   10.3312   -4.5600    0.0000 C   0  0  0  0  0  0  0  0  0  0  0  0
    4.2690    3.9400    0.0000 C   0  0  0  0  0  0  0  0  0  0  0  0
    6.3301   -1.2500    0.0000 H   0  0  0  0  0  0  0  0  0  0  0  0
    8.3437   -2.1677    0.0000 H   0  0  0  0  0  0  0  0  0  0  0  0
    7.9451   -1.4774    0.0000 H   0  0  0  0  0  0  0  0  0  0  0  0
    7.4040   -0.2500    0.0000 H   0  0  0  0  0  0  0  0  0  0  0  0
    5.3905    0.0477    0.0000 H   0  0  0  0  0  0  0  0  0  0  0  0
    5.7890   -0.6426    0.0000 H   0  0  0  0  0  0  0  0  0  0  0  0
    7.1225   -2.9523    0.0000 H   0  0  0  0  0  0  0  0  0  0  0  0
    7.5210   -3.6426    0.0000 H   0  0  0  0  0  0  0  0  0  0  0  0
    6.5380    0.6300    0.0000 H   0  0  0  0  0  0  0  0  0  0  0  0
    5.6910   -1.5231    0.0000 H   0  0  0  0  0  0  0  0  0  0  0  0
    5.4641   -2.3700    0.0000 H   0  0  0  0  0  0  0  0  0  0  0  0
    6.3110   -2.5969    0.0000 H   0  0  0  0  0  0  0  0  0  0  0  0
    5.6720    2.7500    0.0000 H   0  0  0  0  0  0  0  0  0  0  0  0
    4.2690    0.3200    0.0000 H   0  0  0  0  0  0  0  0  0  0  0  0
    8.0622   -4.8700    0.0000 H   0  0  0  0  0  0  0  0  0  0  0  0
    9.4651   -2.4400    0.0000 H   0  0  0  0  0  0  0  0  0  0  0  0
    7.4040    1.1300    0.0000 H   0  0  0  0  0  0  0  0  0  0  0  0
    2.8660    1.1300    0.0000 H   0  0  0  0  0  0  0  0  0  0  0  0
    9.4651   -5.6800    0.0000 H   0  0  0  0  0  0  0  0  0  0  0  0
   10.8681   -3.2500    0.0000 H   0  0  0  0  0  0  0  0  0  0  0  0
   10.8681   -4.8700    0.0000 H   0  0  0  0  0  0  0  0  0  0  0  0
    2.0000    2.6300    0.0000 H   0  0  0  0  0  0  0  0  0  0  0  0
    5.1350    5.0600    0.0000 H   0  0  0  0  0  0  0  0  0  0  0  0
    5.6720    4.1300    0.0000 H   0  0  0  0  0  0  0  0  0  0  0  0
 10  1  1  1  0  0  0 
  1 41  1  0  0  0  0 
  2 20  1  0  0  0  0 
  2 46  1  0  0  0  0 
  3 24  2  0  0  0  0 
  6  4  1  1  0  0  0 
  4  8  1  0  0  0  0 
  4 28  1  0  0  0  0 
  5 24  1  0  0  0  0 
  5 47  1  0  0  0  0 
  5 48  1  0  0  0  0 
  6  7  1  0  0  0  0 
  6 11  1  0  0  0  0 
  6 25  1  0  0  0  0 
  7  9  1  0  0  0  0 
  7 26  1  0  0  0  0 
  7 27  1  0  0  0  0 
  8 10  1  0  0  0  0 
  8 29  1  0  0  0  0 
  8 30  1  0  0  0  0 
  9 13  1  0  0  0  0 
  9 31  1  0  0  0  0 
  9 32  1  0  0  0  0 
 10 12  1  0  0  0  0 
 10 33  1  0  0  0  0 
 11 34  1  0  0  0  0 
 11 35  1  0  0  0  0 
 11 36  1  0  0  0  0 
 12 14  2  0  0  0  0 
 12 15  1  0  0  0  0 
 13 16  2  0  0  0  0 
 13 17  1  0  0  0  0 
 14 18  1  0  0  0  0 
 14 37  1  0  0  0  0 
 15 19  2  0  0  0  0 
 15 38  1  0  0  0  0 
 16 21  1  0  0  0  0 
 16 39  1  0  0  0  0 
 17 22  2  0  0  0  0 
 17 40  1  0  0  0  0 
 18 20  2  0  0  0  0 
 18 24  1  0  0  0  0 
 19 20  1  0  0  0  0 
 19 42  1  0  0  0  0 
 21 23  2  0  0  0  0 
 21 43  1  0  0  0  0 
 22 23  1  0  0  0  0 
 22 44  1  0  0  0  0 
 23 45  1  0  0  0  0 
M  END
> <cdk:Title>
134044

> <cdk:Remark>
null

> <PUBCHEM_COMPOUND_CID>
134044

> <PUBCHEM_COMPOUND_CANONICALIZED>
1

> <PUBCHEM_CACTVS_COMPLEXITY>
385

> <PUBCHEM_CACTVS_HBOND_ACCEPTOR>
4

> <PUBCHEM_CACTVS_HBOND_DONOR>
4

> <PUBCHEM_CACTVS_ROTATABLE_BOND>
8

> <PUBCHEM_CACTVS_SUBSKEYS>
AAADceB7MAAAAAAAAAAAAAAAAAAAAAAAAAAwYAAAAAAAAAABQAAAHgAQCAAADDzhmAYyBoLAAgCIAiFSEACCAAAkIAAIiIEODMgKNjaClROEcUBm8BGYmYeY/OTOIAACAAAIAABAAAQAABAAAAAAAAAAAA==

> <PUBCHEM_IUPAC_OPENEYE_NAME>
2-hydroxy-5-[(1R)-1-hydroxy-2-[[(1R)-1-methyl-3-phenyl-propyl]amino]ethyl]benzamide

> <PUBCHEM_IUPAC_CAS_NAME>
2-hydroxy-5-[(1R)-1-hydroxy-2-[[(2R)-4-phenylbutan-2-yl]amino]ethyl]benzamide

> <PUBCHEM_IUPAC_NAME>
2-hydroxy-5-[(1R)-1-hydroxy-2-[[(2R)-4-phenylbutan-2-yl]amino]ethyl]benzamide

> <PUBCHEM_IUPAC_SYSTEMATIC_NAME>
2-oxidanyl-5-[(1R)-1-oxidanyl-2-[[(2R)-4-phenylbutan-2-yl]amino]ethyl]benzamide

> <PUBCHEM_IUPAC_TRADITIONAL_NAME>
2-hydroxy-5-[(1R)-1-hydroxy-2-[[(1R)-1-methyl-3-phenyl-propyl]amino]ethyl]benzamide

> <PUBCHEM_IUPAC_INCHI>
InChI=1S/C19H24N2O3/c1-13(7-8-14-5-3-2-4-6-14)21-12-18(23)15-9-10-17(22)16(11-15)19(20)24/h2-6,9-11,13,18,21-23H,7-8,12H2,1H3,(H2,20,24)/t13-,18+/m1/s1

> <PUBCHEM_IUPAC_INCHIKEY>
SGUAFYQXFOLMHL-ACJLOTCBSA-N

> <PUBCHEM_XLOGP3>
3.1

> <PUBCHEM_EXACT_MASS>
328.178693

> <PUBCHEM_MOLECULAR_FORMULA>
C19H24N2O3

> <PUBCHEM_MOLECULAR_WEIGHT>
328.40546

> <PUBCHEM_OPENEYE_CAN_SMILES>
CC(CCC1=CC=CC=C1)NCC(C2=CC(=C(C=C2)O)C(=O)N)O

> <PUBCHEM_OPENEYE_ISO_SMILES>
C[C@H](CCC1=CC=CC=C1)NC[C@@H](C2=CC(=C(C=C2)O)C(=O)N)O

> <PUBCHEM_CACTVS_TPSA>
95.6

> <PUBCHEM_MONOISOTOPIC_WEIGHT>
328.178693

> <PUBCHEM_TOTAL_CHARGE>
0

> <PUBCHEM_HEAVY_ATOM_COUNT>
24

> <PUBCHEM_ATOM_DEF_STEREO_COUNT>
2

> <PUBCHEM_ATOM_UDEF_STEREO_COUNT>
0

> <PUBCHEM_BOND_DEF_STEREO_COUNT>
0

> <PUBCHEM_BOND_UDEF_STEREO_COUNT>
0

> <PUBCHEM_ISOTOPIC_ATOM_COUNT>
0

> <PUBCHEM_COMPONENT_COUNT>
1

> <PUBCHEM_CACTVS_TAUTO_COUNT>
21

> <PUBCHEM_COORDINATE_TYPE>
1
5
255

> <PUBCHEM_BONDANNOTATIONS>
10  1  5
12  14  8
12  15  8
13  16  8
13  17  8
14  18  8
15  19  8
16  21  8
17  22  8
18  20  8
19  20  8
21  23  8
22  23  8
6  4  5

> <DRUG_ID>
w130

> <DRUG_NAME>
Dilevalol

$$$$
31315
  CDK     0927151942
null
 39 42  0  0  0  0  0  0  0  0999 V2000
    6.2619   -1.4842    0.0000 O   0  0  0  0  0  0  0  0  0  0  0  0
    7.9184    1.6661    0.0000 O   0  0  0  0  0  0  0  0  0  0  0  0
    2.8065    2.8556    0.0000 O   0  0  0  0  0  0  0  0  0  0  0  0
    4.6783   -2.2889    0.0000 N   0  0  0  0  0  0  0  0  0  0  0  0
    4.6783   -0.6795    0.0000 C   0  0  0  0  0  0  0  0  0  0  0  0
    3.7320   -0.9842    0.0000 C   0  0  0  0  0  0  0  0  0  0  0  0
    5.2619   -1.4842    0.0000 C   0  0  0  0  0  0  0  0  0  0  0  0
    5.4883   -0.0931    0.0000 C   0  0  0  0  0  0  0  0  0  0  0  0
    4.2103    0.2043    0.0000 C   0  0  0  0  0  0  0  0  0  0  0  0
    3.7320   -1.9842    0.0000 C   0  0  0  0  0  0  0  0  0  0  0  0
    2.8660   -0.4842    0.0000 C   0  0  0  0  0  0  0  0  0  0  0  0
    2.8660   -2.4842    0.0000 C   0  0  0  0  0  0  0  0  0  0  0  0
    5.3855    0.9016    0.0000 C   0  0  0  0  0  0  0  0  0  0  0  0
    3.2110    0.2409    0.0000 C   0  0  0  0  0  0  0  0  0  0  0  0
    6.4011   -0.5014    0.0000 C   0  0  0  0  0  0  0  0  0  0  0  0
    4.7417    1.0514    0.0000 C   0  0  0  0  0  0  0  0  0  0  0  0
    2.0000   -0.9842    0.0000 C   0  0  0  0  0  0  0  0  0  0  0  0
    2.0000   -1.9842    0.0000 C   0  0  0  0  0  0  0  0  0  0  0  0
    6.1955    1.4880    0.0000 C   0  0  0  0  0  0  0  0  0  0  0  0
    2.7431    1.1247    0.0000 C   0  0  0  0  0  0  0  0  0  0  0  0
    7.2112    0.0850    0.0000 C   0  0  0  0  0  0  0  0  0  0  0  0
    4.2738    1.9352    0.0000 C   0  0  0  0  0  0  0  0  0  0  0  0
    7.1084    1.0797    0.0000 C   0  0  0  0  0  0  0  0  0  0  0  0
    3.2744    1.9718    0.0000 C   0  0  0  0  0  0  0  0  0  0  0  0
    4.8709   -2.8783    0.0000 H   0  0  0  0  0  0  0  0  0  0  0  0
    2.8660    0.1358    0.0000 H   0  0  0  0  0  0  0  0  0  0  0  0
    2.8660   -3.1042    0.0000 H   0  0  0  0  0  0  0  0  0  0  0  0
    2.8815   -0.2843    0.0000 H   0  0  0  0  0  0  0  0  0  0  0  0
    4.8195    1.1548    0.0000 H   0  0  0  0  0  0  0  0  0  0  0  0
    5.3613    1.0287    0.0000 H   0  0  0  0  0  0  0  0  0  0  0  0
    6.4649   -1.1181    0.0000 H   0  0  0  0  0  0  0  0  0  0  0  0
    1.4631   -0.6742    0.0000 H   0  0  0  0  0  0  0  0  0  0  0  0
    1.4631   -2.2942    0.0000 H   0  0  0  0  0  0  0  0  0  0  0  0
    2.1235    1.1474    0.0000 H   0  0  0  0  0  0  0  0  0  0  0  0
    6.1318    2.1047    0.0000 H   0  0  0  0  0  0  0  0  0  0  0  0
    4.6032    2.4604    0.0000 H   0  0  0  0  0  0  0  0  0  0  0  0
    7.7771   -0.1682    0.0000 H   0  0  0  0  0  0  0  0  0  0  0  0
    2.1869    2.8783    0.0000 H   0  0  0  0  0  0  0  0  0  0  0  0
    8.4844    1.4129    0.0000 H   0  0  0  0  0  0  0  0  0  0  0  0
  1  7  2  0  0  0  0 
  2 23  1  0  0  0  0 
  2 39  1  0  0  0  0 
  3 24  1  0  0  0  0 
  3 38  1  0  0  0  0 
  4  7  1  0  0  0  0 
  4 10  1  0  0  0  0 
  4 25  1  0  0  0  0 
  5  6  1  0  0  0  0 
  5  7  1  0  0  0  0 
  5  8  1  0  0  0  0 
  5  9  1  0  0  0  0 
  6 10  1  0  0  0  0 
  6 11  2  0  0  0  0 
  8 13  2  0  0  0  0 
  8 15  1  0  0  0  0 
  9 14  2  0  0  0  0 
  9 16  1  0  0  0  0 
 10 12  2  0  0  0  0 
 11 17  1  0  0  0  0 
 11 26  1  0  0  0  0 
 12 18  1  0  0  0  0 
 12 27  1  0  0  0  0 
 13 19  1  0  0  0  0 
 13 29  1  0  0  0  0 
 14 20  1  0  0  0  0 
 14 28  1  0  0  0  0 
 15 21  2  0  0  0  0 
 15 31  1  0  0  0  0 
 16 22  2  0  0  0  0 
 16 30  1  0  0  0  0 
 17 18  2  0  0  0  0 
 17 32  1  0  0  0  0 
 18 33  1  0  0  0  0 
 19 23  2  0  0  0  0 
 19 35  1  0  0  0  0 
 20 24  2  0  0  0  0 
 20 34  1  0  0  0  0 
 21 23  1  0  0  0  0 
 21 37  1  0  0  0  0 
 22 24  1  0  0  0  0 
 22 36  1  0  0  0  0 
M  END
> <cdk:Title>
31315

> <cdk:Remark>
null

> <PUBCHEM_COMPOUND_CID>
31315

> <PUBCHEM_COMPOUND_CANONICALIZED>
1

> <PUBCHEM_CACTVS_COMPLEXITY>
442

> <PUBCHEM_CACTVS_HBOND_ACCEPTOR>
3

> <PUBCHEM_CACTVS_HBOND_DONOR>
3

> <PUBCHEM_CACTVS_ROTATABLE_BOND>
2

> <PUBCHEM_CACTVS_SUBSKEYS>
AAADccB6MAAAAAAAAAAAAAAAAAAAAWAAAAAwYMAAAAAAAFgBUAAAHgAQCAAADgyBmAAwxoLAAgCIAiVSUACCAAAhIgAIiAEGbIgIJjLClZOEcAhk1BHI2AecyPCPoAAAAAACAABAAAAAAAQAAAAAAAAAAA==

> <PUBCHEM_IUPAC_OPENEYE_NAME>
3,3-bis(4-hydroxyphenyl)indolin-2-one

> <PUBCHEM_IUPAC_CAS_NAME>
3,3-bis(4-hydroxyphenyl)-1H-indol-2-one

> <PUBCHEM_IUPAC_NAME>
3,3-bis(4-hydroxyphenyl)-1H-indol-2-one

> <PUBCHEM_IUPAC_SYSTEMATIC_NAME>
3,3-bis(4-hydroxyphenyl)-1H-indol-2-one

> <PUBCHEM_IUPAC_TRADITIONAL_NAME>
3,3-bis(4-hydroxyphenyl)oxindole

> <PUBCHEM_IUPAC_INCHI>
InChI=1S/C20H15NO3/c22-15-9-5-13(6-10-15)20(14-7-11-16(23)12-8-14)17-3-1-2-4-18(17)21-19(20)24/h1-12,22-23H,(H,21,24)

> <PUBCHEM_IUPAC_INCHIKEY>
SJDACOMXKWHBOW-UHFFFAOYSA-N

> <PUBCHEM_XLOGP3_AA>
3.2

> <PUBCHEM_EXACT_MASS>
317.105193

> <PUBCHEM_MOLECULAR_FORMULA>
C20H15NO3

> <PUBCHEM_MOLECULAR_WEIGHT>
317.338

> <PUBCHEM_OPENEYE_CAN_SMILES>
C1=CC=C2C(=C1)C(C(=O)N2)(C3=CC=C(C=C3)O)C4=CC=C(C=C4)O

> <PUBCHEM_OPENEYE_ISO_SMILES>
C1=CC=C2C(=C1)C(C(=O)N2)(C3=CC=C(C=C3)O)C4=CC=C(C=C4)O

> <PUBCHEM_CACTVS_TPSA>
69.6

> <PUBCHEM_MONOISOTOPIC_WEIGHT>
317.105193

> <PUBCHEM_TOTAL_CHARGE>
0

> <PUBCHEM_HEAVY_ATOM_COUNT>
24

> <PUBCHEM_ATOM_DEF_STEREO_COUNT>
0

> <PUBCHEM_ATOM_UDEF_STEREO_COUNT>
0

> <PUBCHEM_BOND_DEF_STEREO_COUNT>
0

> <PUBCHEM_BOND_UDEF_STEREO_COUNT>
0

> <PUBCHEM_ISOTOPIC_ATOM_COUNT>
0

> <PUBCHEM_COMPONENT_COUNT>
1

> <PUBCHEM_CACTVS_TAUTO_COUNT>
6

> <PUBCHEM_COORDINATE_TYPE>
1
5
255

> <PUBCHEM_BONDANNOTATIONS>
10  12  8
11  17  8
12  18  8
13  19  8
14  20  8
15  21  8
16  22  8
17  18  8
19  23  8
20  24  8
21  23  8
22  24  8
6  10  8
6  11  8
8  13  8
8  15  8
9  14  8
9  16  8

> <DRUG_ID>
w131

> <DRUG_NAME>
Oxyphenisatine

$$$$
23710500
  CDK     0927151942
null
 31 30  0  0  0  0  0  0  0  0999 V2000
    3.7320   -2.5490    0.0000 S   0  0  0  0  0  0  0  0  0  0  0  0
    4.5981   -3.0490    0.0000 Na  0  0  0  0  0  0  0  0  0  0  0  0
    2.0000    0.4510    0.0000 O   0  0  0  0  0  0  0  0  0  0  0  0
    5.4641    0.4510    0.0000 O   0  0  0  0  0  0  0  0  0  0  0  0
    2.8660   -1.0490    0.0000 N   0  0  0  0  0  0  0  0  0  0  0  0
    4.5981   -1.0490    0.0000 N   0  0  0  0  0  0  0  0  0  0  0  0
    3.7320    0.4510    0.0000 C   0  0  3  0  0  0  0  0  0  0  0  0
    4.2320    1.3170    0.0000 C   0  0  3  0  0  0  0  0  0  0  0  0
    3.2320    1.3170    0.0000 C   0  0  0  0  0  0  0  0  0  0  0  0
    3.7320    2.1830    0.0000 C   0  0  0  0  0  0  0  0  0  0  0  0
    2.8660   -0.0490    0.0000 C   0  0  0  0  0  0  0  0  0  0  0  0
    5.2320    1.3170    0.0000 C   0  0  0  0  0  0  0  0  0  0  0  0
    4.5981   -0.0490    0.0000 C   0  0  0  0  0  0  0  0  0  0  0  0
    2.2320    1.3170    0.0000 C   0  0  0  0  0  0  0  0  0  0  0  0
    4.2320    3.0490    0.0000 C   0  0  0  0  0  0  0  0  0  0  0  0
    3.7320   -1.5490    0.0000 C   0  0  0  0  0  0  0  0  0  0  0  0
    4.5420    0.7801    0.0000 H   0  0  0  0  0  0  0  0  0  0  0  0
    3.8147    1.5290    0.0000 H   0  0  0  0  0  0  0  0  0  0  0  0
    3.1244    1.9276    0.0000 H   0  0  0  0  0  0  0  0  0  0  0  0
    3.2571    2.5815    0.0000 H   0  0  0  0  0  0  0  0  0  0  0  0
    3.2571    1.7845    0.0000 H   0  0  0  0  0  0  0  0  0  0  0  0
    5.2320    0.6970    0.0000 H   0  0  0  0  0  0  0  0  0  0  0  0
    5.8520    1.3170    0.0000 H   0  0  0  0  0  0  0  0  0  0  0  0
    5.2320    1.9370    0.0000 H   0  0  0  0  0  0  0  0  0  0  0  0
    2.2320    1.9370    0.0000 H   0  0  0  0  0  0  0  0  0  0  0  0
    1.6120    1.3170    0.0000 H   0  0  0  0  0  0  0  0  0  0  0  0
    2.2320    0.6970    0.0000 H   0  0  0  0  0  0  0  0  0  0  0  0
    4.7690    2.7390    0.0000 H   0  0  0  0  0  0  0  0  0  0  0  0
    4.5420    3.5860    0.0000 H   0  0  0  0  0  0  0  0  0  0  0  0
    3.6951    3.3590    0.0000 H   0  0  0  0  0  0  0  0  0  0  0  0
    2.3291   -1.3590    0.0000 H   0  0  0  0  0  0  0  0  0  0  0  0
  1 16  1  0  0  0  0 
  3 11  2  0  0  0  0 
  4 13  2  0  0  0  0 
  5 11  1  0  0  0  0 
  5 16  1  0  0  0  0 
  5 31  1  0  0  0  0 
  6 13  1  0  0  0  0 
  6 16  2  0  0  0  0 
  7  8  1  0  0  0  0 
  7  9  1  0  0  0  0 
  7 11  1  0  0  0  0 
  7 13  1  0  0  0  0 
  8 10  1  0  0  0  0 
  8 12  1  0  0  0  0 
  8 17  1  0  0  0  0 
  9 14  1  0  0  0  0 
  9 18  1  0  0  0  0 
  9 19  1  0  0  0  0 
 10 15  1  0  0  0  0 
 10 20  1  0  0  0  0 
 10 21  1  0  0  0  0 
 12 22  1  0  0  0  0 
 12 23  1  0  0  0  0 
 12 24  1  0  0  0  0 
 14 25  1  0  0  0  0 
 14 26  1  0  0  0  0 
 14 27  1  0  0  0  0 
 15 28  1  0  0  0  0 
 15 29  1  0  0  0  0 
 15 30  1  0  0  0  0 
M  CHG  1   1  -1
M  CHG  1   2   1
M  END
> <cdk:Title>
23710500

> <cdk:Remark>
null

> <PUBCHEM_COMPOUND_CID>
23710500

> <PUBCHEM_COMPOUND_CANONICALIZED>
1

> <PUBCHEM_CACTVS_COMPLEXITY>
333

> <PUBCHEM_CACTVS_HBOND_ACCEPTOR>
3

> <PUBCHEM_CACTVS_HBOND_DONOR>
1

> <PUBCHEM_CACTVS_ROTATABLE_BOND>
3

> <PUBCHEM_CACTVS_SUBSKEYS>
AAADccBzMCBAAAAAAAAAAAAAAAAAAAAAAAAgAAAAAAAAAAAAAAAAHgQQAAAADwCBgAADAALAAAAoAAEQNAAAEAEAAAABAAEAAAAAABoIyAAEAAAAAAAAAAEYAAAPgAAAAAAAAAAAAAAAAAAAAAAAAAAAAA==

> <PUBCHEM_IUPAC_OPENEYE_NAME>
sodium;5-ethyl-4,6-dioxo-5-sec-butyl-1H-pyrimidine-2-thiolate

> <PUBCHEM_IUPAC_CAS_NAME>
sodium;5-butan-2-yl-5-ethyl-4,6-dioxo-1H-pyrimidine-2-thiolate

> <PUBCHEM_IUPAC_NAME>
sodium;5-butan-2-yl-5-ethyl-4,6-dioxo-1H-pyrimidine-2-thiolate

> <PUBCHEM_IUPAC_SYSTEMATIC_NAME>
sodium;5-butan-2-yl-5-ethyl-4,6-bis(oxidanylidene)-1H-pyrimidine-2-thiolate

> <PUBCHEM_IUPAC_TRADITIONAL_NAME>
sodium;5-ethyl-4,6-diketo-5-sec-butyl-1H-pyrimidine-2-thiolate

> <PUBCHEM_IUPAC_INCHI>
InChI=1S/C10H16N2O2S.Na/c1-4-6(3)10(5-2)7(13)11-9(15)12-8(10)14;/h6H,4-5H2,1-3H3,(H2,11,12,13,14,15);/q;+1/p-1

> <PUBCHEM_IUPAC_INCHIKEY>
SLZHLQUFNFXTHB-UHFFFAOYSA-M

> <PUBCHEM_EXACT_MASS>
250.075193

> <PUBCHEM_MOLECULAR_FORMULA>
C10H15N2NaO2S

> <PUBCHEM_MOLECULAR_WEIGHT>
250.293069

> <PUBCHEM_OPENEYE_CAN_SMILES>
CCC(C)C1(C(=O)NC(=NC1=O)[S-])CC.[Na+]

> <PUBCHEM_OPENEYE_ISO_SMILES>
CCC(C)C1(C(=O)NC(=NC1=O)[S-])CC.[Na+]

> <PUBCHEM_CACTVS_TPSA>
59.5

> <PUBCHEM_MONOISOTOPIC_WEIGHT>
250.075193

> <PUBCHEM_TOTAL_CHARGE>
0

> <PUBCHEM_HEAVY_ATOM_COUNT>
16

> <PUBCHEM_ATOM_DEF_STEREO_COUNT>
0

> <PUBCHEM_ATOM_UDEF_STEREO_COUNT>
2

> <PUBCHEM_BOND_DEF_STEREO_COUNT>
0

> <PUBCHEM_BOND_UDEF_STEREO_COUNT>
0

> <PUBCHEM_ISOTOPIC_ATOM_COUNT>
0

> <PUBCHEM_COMPONENT_COUNT>
2

> <PUBCHEM_CACTVS_TAUTO_COUNT>
2

> <PUBCHEM_NONSTANDARDBOND>
1  2  7

> <PUBCHEM_COORDINATE_TYPE>
1
5
255

> <PUBCHEM_BONDANNOTATIONS>
7  9  3
8  12  3

> <DRUG_ID>
w132

> <DRUG_NAME>
Thiobutabarbitone

$$$$
6433295
  CDK     0927151942
null
 29 30  0  0  0  0  0  0  0  0999 V2000
    4.2514   -0.3020    0.0000 O   0  0  0  0  0  0  0  0  0  0  0  0
   11.2272   -0.2088    0.0000 O   0  0  0  0  0  0  0  0  0  0  0  0
    2.0000   -1.7497    0.0000 O   0  0  0  0  0  0  0  0  0  0  0  0
    2.1810   -0.0271    0.0000 O   0  0  0  0  0  0  0  0  0  0  0  0
   10.3611    1.2912    0.0000 N   0  0  0  0  0  0  0  0  0  0  0  0
    8.6291    1.2912    0.0000 N   0  0  0  0  0  0  0  0  0  0  0  0
    8.6291   -0.7088    0.0000 N   0  0  0  0  0  0  0  0  0  0  0  0
    2.5878   -0.9407    0.0000 N   0  0  0  0  0  0  0  0  0  0  0  0
    9.4951   -0.2088    0.0000 N   0  0  0  0  0  0  0  0  0  0  0  0
    5.1650   -0.7088    0.0000 C   0  0  0  0  0  0  0  0  0  0  0  0
    5.0604   -1.7033    0.0000 C   0  0  0  0  0  0  0  0  0  0  0  0
    6.0310   -0.2088    0.0000 C   0  0  0  0  0  0  0  0  0  0  0  0
    3.5823   -1.0452    0.0000 C   0  0  0  0  0  0  0  0  0  0  0  0
    4.0823   -1.9112    0.0000 C   0  0  0  0  0  0  0  0  0  0  0  0
    6.8970   -0.7088    0.0000 C   0  0  0  0  0  0  0  0  0  0  0  0
    7.7631   -0.2088    0.0000 C   0  0  0  0  0  0  0  0  0  0  0  0
    7.7631    0.7912    0.0000 C   0  0  0  0  0  0  0  0  0  0  0  0
    9.4951    0.7912    0.0000 C   0  0  0  0  0  0  0  0  0  0  0  0
   11.2272    0.7912    0.0000 C   0  0  0  0  0  0  0  0  0  0  0  0
   12.0932    1.2912    0.0000 C   0  0  0  0  0  0  0  0  0  0  0  0
    5.5212   -2.1182    0.0000 H   0  0  0  0  0  0  0  0  0  0  0  0
    6.0310    0.4112    0.0000 H   0  0  0  0  0  0  0  0  0  0  0  0
    3.8301   -2.4776    0.0000 H   0  0  0  0  0  0  0  0  0  0  0  0
    6.8970   -1.3288    0.0000 H   0  0  0  0  0  0  0  0  0  0  0  0
    7.2261    1.1012    0.0000 H   0  0  0  0  0  0  0  0  0  0  0  0
   10.3611    1.9112    0.0000 H   0  0  0  0  0  0  0  0  0  0  0  0
   12.4032    0.7543    0.0000 H   0  0  0  0  0  0  0  0  0  0  0  0
   12.6301    1.6012    0.0000 H   0  0  0  0  0  0  0  0  0  0  0  0
   11.7832    1.8282    0.0000 H   0  0  0  0  0  0  0  0  0  0  0  0
  1 10  1  0  0  0  0 
  1 13  1  0  0  0  0 
  2 19  2  0  0  0  0 
  3  8  1  0  0  0  0 
  4  8  2  0  0  0  0 
  5 18  1  0  0  0  0 
  5 19  1  0  0  0  0 
  5 26  1  0  0  0  0 
  6 17  1  0  0  0  0 
  6 18  2  0  0  0  0 
  7  9  2  0  0  0  0 
  7 16  1  0  0  0  0 
  8 13  1  0  0  0  0 
  9 18  1  0  0  0  0 
 10 11  2  0  0  0  0 
 10 12  1  0  0  0  0 
 11 14  1  0  0  0  0 
 11 21  1  0  0  0  0 
 12 15  2  0  0  0  0 
 12 22  1  0  0  0  0 
 13 14  2  0  0  0  0 
 14 23  1  0  0  0  0 
 15 16  1  0  0  0  0 
 15 24  1  0  0  0  0 
 16 17  2  0  0  0  0 
 17 25  1  0  0  0  0 
 19 20  1  0  0  0  0 
 20 27  1  0  0  0  0 
 20 28  1  0  0  0  0 
 20 29  1  0  0  0  0 
M  CHG  1   3  -1
M  CHG  1   8   1
M  END
> <cdk:Title>
6433295

> <cdk:Remark>
null

> <PUBCHEM_COMPOUND_CID>
6433295

> <PUBCHEM_COMPOUND_CANONICALIZED>
1

> <PUBCHEM_CACTVS_COMPLEXITY>
397

> <PUBCHEM_CACTVS_HBOND_ACCEPTOR>
7

> <PUBCHEM_CACTVS_HBOND_DONOR>
1

> <PUBCHEM_CACTVS_ROTATABLE_BOND>
3

> <PUBCHEM_CACTVS_SUBSKEYS>
AAADccBzuAAAAAAAAAAAAAAAAAAAASAAAAAsAAAAAAAAAAAB4AAAHgAcAAAACAzBlgQ/lJbYVECrAbV3dwCSjC89MqA92AE+fNqMbjLEvZuemSD82RNI6aa8AAAAAAAAAAAAAAAAAAAAAAAAAAAAAAAAAA==

> <PUBCHEM_IUPAC_OPENEYE_NAME>
N-[6-[(E)-2-(5-nitro-2-furyl)vinyl]-1,2,4-triazin-3-yl]acetamide

> <PUBCHEM_IUPAC_CAS_NAME>
N-[6-[(E)-2-(5-nitro-2-furanyl)ethenyl]-1,2,4-triazin-3-yl]acetamide

> <PUBCHEM_IUPAC_NAME>
N-[6-[(E)-2-(5-nitrofuran-2-yl)ethenyl]-1,2,4-triazin-3-yl]acetamide

> <PUBCHEM_IUPAC_SYSTEMATIC_NAME>
N-[6-[(E)-2-(5-nitrofuran-2-yl)ethenyl]-1,2,4-triazin-3-yl]ethanamide

> <PUBCHEM_IUPAC_TRADITIONAL_NAME>
N-[6-[(E)-2-(5-nitro-2-furyl)vinyl]-1,2,4-triazin-3-yl]acetamide

> <PUBCHEM_IUPAC_INCHI>
InChI=1S/C11H9N5O4/c1-7(17)13-11-12-6-8(14-15-11)2-3-9-4-5-10(20-9)16(18)19/h2-6H,1H3,(H,12,13,15,17)/b3-2+

> <PUBCHEM_IUPAC_INCHIKEY>
SWMPGCCDXNLPED-NSCUHMNNSA-N

> <PUBCHEM_XLOGP3_AA>
0.3

> <PUBCHEM_EXACT_MASS>
275.065454

> <PUBCHEM_MOLECULAR_FORMULA>
C11H9N5O4

> <PUBCHEM_MOLECULAR_WEIGHT>
275.22026

> <PUBCHEM_OPENEYE_CAN_SMILES>
CC(=O)NC1=NC=C(N=N1)C=CC2=CC=C(O2)[N+](=O)[O-]

> <PUBCHEM_OPENEYE_ISO_SMILES>
CC(=O)NC1=NC=C(N=N1)/C=C/C2=CC=C(O2)[N+](=O)[O-]

> <PUBCHEM_CACTVS_TPSA>
127

> <PUBCHEM_MONOISOTOPIC_WEIGHT>
275.065454

> <PUBCHEM_TOTAL_CHARGE>
0

> <PUBCHEM_HEAVY_ATOM_COUNT>
20

> <PUBCHEM_ATOM_DEF_STEREO_COUNT>
0

> <PUBCHEM_ATOM_UDEF_STEREO_COUNT>
0

> <PUBCHEM_BOND_DEF_STEREO_COUNT>
1

> <PUBCHEM_BOND_UDEF_STEREO_COUNT>
0

> <PUBCHEM_ISOTOPIC_ATOM_COUNT>
0

> <PUBCHEM_COMPONENT_COUNT>
1

> <PUBCHEM_CACTVS_TAUTO_COUNT>
9

> <PUBCHEM_COORDINATE_TYPE>
1
5
255

> <PUBCHEM_BONDANNOTATIONS>
1  10  8
1  13  8
10  11  8
11  14  8
13  14  8
16  17  8
6  17  8
6  18  8
7  16  8
7  9  8
9  18  8

> <DRUG_ID>
w133

> <DRUG_NAME>
Acetylfuratrizine

$$$$
6536
  CDK     0927151942
null
 63 65  0  0  0  0  0  0  0  0999 V2000
   10.2229    3.1181    0.0000 Cl  0  0  0  0  0  0  0  0  0  0  0  0
    4.4641    1.7500    0.0000 O   0  0  0  0  0  0  0  0  0  0  0  0
    5.4641   -2.2500    0.0000 O   0  0  0  0  0  0  0  0  0  0  0  0
    3.7320   -4.2500    0.0000 N   0  0  0  0  0  0  0  0  0  0  0  0
    5.4641    1.7500    0.0000 C   0  0  3  0  0  0  0  0  0  0  0  0
    6.4641    1.7500    0.0000 C   0  0  0  0  0  0  0  0  0  0  0  0
    5.4641    0.7500    0.0000 C   0  0  0  0  0  0  0  0  0  0  0  0
    5.4641    2.7500    0.0000 C   0  0  0  0  0  0  0  0  0  0  0  0
    7.4038    2.0920    0.0000 C   0  0  0  0  0  0  0  0  0  0  0  0
    4.5981    0.2500    0.0000 C   0  0  0  0  0  0  0  0  0  0  0  0
    6.3301    0.2500    0.0000 C   0  0  0  0  0  0  0  0  0  0  0  0
    6.3301    3.2500    0.0000 C   0  0  0  0  0  0  0  0  0  0  0  0
    4.5981    3.2500    0.0000 C   0  0  0  0  0  0  0  0  0  0  0  0
    5.4641   -1.2500    0.0000 C   0  0  0  0  0  0  0  0  0  0  0  0
    4.5981   -3.7500    0.0000 C   0  0  0  0  0  0  0  0  0  0  0  0
    4.5981   -0.7500    0.0000 C   0  0  0  0  0  0  0  0  0  0  0  0
    6.3301   -0.7500    0.0000 C   0  0  0  0  0  0  0  0  0  0  0  0
    6.3301    4.2500    0.0000 C   0  0  0  0  0  0  0  0  0  0  0  0
    4.5981    4.2500    0.0000 C   0  0  0  0  0  0  0  0  0  0  0  0
    8.1698    1.4492    0.0000 C   0  0  0  0  0  0  0  0  0  0  0  0
    7.5774    3.0768    0.0000 C   0  0  0  0  0  0  0  0  0  0  0  0
    4.5981   -2.7500    0.0000 C   0  0  0  0  0  0  0  0  0  0  0  0
    5.4641    4.7500    0.0000 C   0  0  0  0  0  0  0  0  0  0  0  0
    3.7320   -5.2500    0.0000 C   0  0  0  0  0  0  0  0  0  0  0  0
    2.8660   -3.7500    0.0000 C   0  0  0  0  0  0  0  0  0  0  0  0
    9.1095    1.7912    0.0000 C   0  0  0  0  0  0  0  0  0  0  0  0
    8.5171    3.4188    0.0000 C   0  0  0  0  0  0  0  0  0  0  0  0
    5.4641    5.7500    0.0000 C   0  0  0  0  0  0  0  0  0  0  0  0
    9.2832    2.7761    0.0000 C   0  0  0  0  0  0  0  0  0  0  0  0
    2.8660   -5.7500    0.0000 C   0  0  0  0  0  0  0  0  0  0  0  0
    2.0000   -4.2500    0.0000 C   0  0  0  0  0  0  0  0  0  0  0  0
    6.2185    1.1807    0.0000 H   0  0  0  0  0  0  0  0  0  0  0  0
    6.3564    2.3606    0.0000 H   0  0  0  0  0  0  0  0  0  0  0  0
    4.0611    0.5600    0.0000 H   0  0  0  0  0  0  0  0  0  0  0  0
    6.8671    0.5600    0.0000 H   0  0  0  0  0  0  0  0  0  0  0  0
    6.8671    2.9400    0.0000 H   0  0  0  0  0  0  0  0  0  0  0  0
    4.0611    2.9400    0.0000 H   0  0  0  0  0  0  0  0  0  0  0  0
    4.1541    1.2131    0.0000 H   0  0  0  0  0  0  0  0  0  0  0  0
    4.8101   -4.3326    0.0000 H   0  0  0  0  0  0  0  0  0  0  0  0
    5.2087   -3.6423    0.0000 H   0  0  0  0  0  0  0  0  0  0  0  0
    4.0611   -1.0600    0.0000 H   0  0  0  0  0  0  0  0  0  0  0  0
    6.8671   -1.0600    0.0000 H   0  0  0  0  0  0  0  0  0  0  0  0
    6.8671    4.5600    0.0000 H   0  0  0  0  0  0  0  0  0  0  0  0
    4.0611    4.5600    0.0000 H   0  0  0  0  0  0  0  0  0  0  0  0
    4.3860   -2.1674    0.0000 H   0  0  0  0  0  0  0  0  0  0  0  0
    3.9875   -2.8577    0.0000 H   0  0  0  0  0  0  0  0  0  0  0  0
    8.0622    0.8387    0.0000 H   0  0  0  0  0  0  0  0  0  0  0  0
    7.1025    3.4754    0.0000 H   0  0  0  0  0  0  0  0  0  0  0  0
    3.9441   -5.8326    0.0000 H   0  0  0  0  0  0  0  0  0  0  0  0
    4.3426   -5.1423    0.0000 H   0  0  0  0  0  0  0  0  0  0  0  0
    3.2646   -3.2750    0.0000 H   0  0  0  0  0  0  0  0  0  0  0  0
    2.4675   -3.2750    0.0000 H   0  0  0  0  0  0  0  0  0  0  0  0
    9.5845    1.3927    0.0000 H   0  0  0  0  0  0  0  0  0  0  0  0
    8.6248    4.0294    0.0000 H   0  0  0  0  0  0  0  0  0  0  0  0
    6.0841    5.7500    0.0000 H   0  0  0  0  0  0  0  0  0  0  0  0
    5.4641    6.3700    0.0000 H   0  0  0  0  0  0  0  0  0  0  0  0
    4.8441    5.7500    0.0000 H   0  0  0  0  0  0  0  0  0  0  0  0
    1.6900   -3.7131    0.0000 H   0  0  0  0  0  0  0  0  0  0  0  0
    1.4631   -4.5600    0.0000 H   0  0  0  0  0  0  0  0  0  0  0  0
    2.3100   -4.7869    0.0000 H   0  0  0  0  0  0  0  0  0  0  0  0
    2.5560   -5.2131    0.0000 H   0  0  0  0  0  0  0  0  0  0  0  0
    2.3291   -6.0600    0.0000 H   0  0  0  0  0  0  0  0  0  0  0  0
    3.1760   -6.2869    0.0000 H   0  0  0  0  0  0  0  0  0  0  0  0
  1 29  1  0  0  0  0 
  2  5  1  0  0  0  0 
  2 38  1  0  0  0  0 
  3 14  1  0  0  0  0 
  3 22  1  0  0  0  0 
  4 15  1  0  0  0  0 
  4 24  1  0  0  0  0 
  4 25  1  0  0  0  0 
  5  6  1  0  0  0  0 
  5  7  1  0  0  0  0 
  5  8  1  0  0  0  0 
  6  9  1  0  0  0  0 
  6 32  1  0  0  0  0 
  6 33  1  0  0  0  0 
  7 10  2  0  0  0  0 
  7 11  1  0  0  0  0 
  8 12  2  0  0  0  0 
  8 13  1  0  0  0  0 
  9 20  2  0  0  0  0 
  9 21  1  0  0  0  0 
 10 16  1  0  0  0  0 
 10 34  1  0  0  0  0 
 11 17  2  0  0  0  0 
 11 35  1  0  0  0  0 
 12 18  1  0  0  0  0 
 12 36  1  0  0  0  0 
 13 19  2  0  0  0  0 
 13 37  1  0  0  0  0 
 14 16  2  0  0  0  0 
 14 17  1  0  0  0  0 
 15 22  1  0  0  0  0 
 15 39  1  0  0  0  0 
 15 40  1  0  0  0  0 
 16 41  1  0  0  0  0 
 17 42  1  0  0  0  0 
 18 23  2  0  0  0  0 
 18 43  1  0  0  0  0 
 19 23  1  0  0  0  0 
 19 44  1  0  0  0  0 
 20 26  1  0  0  0  0 
 20 47  1  0  0  0  0 
 21 27  2  0  0  0  0 
 21 48  1  0  0  0  0 
 22 45  1  0  0  0  0 
 22 46  1  0  0  0  0 
 23 28  1  0  0  0  0 
 24 30  1  0  0  0  0 
 24 49  1  0  0  0  0 
 24 50  1  0  0  0  0 
 25 31  1  0  0  0  0 
 25 51  1  0  0  0  0 
 25 52  1  0  0  0  0 
 26 29  2  0  0  0  0 
 26 53  1  0  0  0  0 
 27 29  1  0  0  0  0 
 27 54  1  0  0  0  0 
 28 55  1  0  0  0  0 
 28 56  1  0  0  0  0 
 28 57  1  0  0  0  0 
 30 61  1  0  0  0  0 
 30 62  1  0  0  0  0 
 30 63  1  0  0  0  0 
 31 58  1  0  0  0  0 
 31 59  1  0  0  0  0 
 31 60  1  0  0  0  0 
M  END
> <cdk:Title>
6536

> <cdk:Remark>
null

> <PUBCHEM_COMPOUND_CID>
6536

> <PUBCHEM_COMPOUND_CANONICALIZED>
1

> <PUBCHEM_CACTVS_COMPLEXITY>
490

> <PUBCHEM_CACTVS_HBOND_ACCEPTOR>
3

> <PUBCHEM_CACTVS_HBOND_DONOR>
1

> <PUBCHEM_CACTVS_ROTATABLE_BOND>
10

> <PUBCHEM_CACTVS_SUBSKEYS>
AAADcfB6MAAEAAAAAAAAAAAAAAAAAAAAAAAwYMAAAAAAAAABUAAAHgIACAAADEbhmCYyBoMABgCAAiBCAAACCAAgJQAIiAAOCogOJiKFMxqDeCCkwBGYuAeA4PwO5AAAAAAAAADIAAAAAAAAAAAAAAAAAA==

> <PUBCHEM_IUPAC_OPENEYE_NAME>
2-(4-chlorophenyl)-1-[4-[2-(diethylamino)ethoxy]phenyl]-1-(p-tolyl)ethanol

> <PUBCHEM_IUPAC_CAS_NAME>
2-(4-chlorophenyl)-1-[4-[2-(diethylamino)ethoxy]phenyl]-1-(4-methylphenyl)ethanol

> <PUBCHEM_IUPAC_NAME>
2-(4-chlorophenyl)-1-[4-[2-(diethylamino)ethoxy]phenyl]-1-(4-methylphenyl)ethanol

> <PUBCHEM_IUPAC_SYSTEMATIC_NAME>
2-(4-chlorophenyl)-1-[4-[2-(diethylamino)ethoxy]phenyl]-1-(4-methylphenyl)ethanol

> <PUBCHEM_IUPAC_TRADITIONAL_NAME>
2-(4-chlorophenyl)-1-[4-[2-(diethylamino)ethoxy]phenyl]-1-(p-tolyl)ethanol

> <PUBCHEM_IUPAC_INCHI>
InChI=1S/C27H32ClNO2/c1-4-29(5-2)18-19-31-26-16-12-24(13-17-26)27(30,23-10-6-21(3)7-11-23)20-22-8-14-25(28)15-9-22/h6-17,30H,4-5,18-20H2,1-3H3

> <PUBCHEM_IUPAC_INCHIKEY>
SYHDSBBKRLVLFF-UHFFFAOYSA-N

> <PUBCHEM_XLOGP3_AA>
6.2

> <PUBCHEM_EXACT_MASS>
437.212157

> <PUBCHEM_MOLECULAR_FORMULA>
C27H32ClNO2

> <PUBCHEM_MOLECULAR_WEIGHT>
438.00148

> <PUBCHEM_OPENEYE_CAN_SMILES>
CCN(CC)CCOC1=CC=C(C=C1)C(CC2=CC=C(C=C2)Cl)(C3=CC=C(C=C3)C)O

> <PUBCHEM_OPENEYE_ISO_SMILES>
CCN(CC)CCOC1=CC=C(C=C1)C(CC2=CC=C(C=C2)Cl)(C3=CC=C(C=C3)C)O

> <PUBCHEM_CACTVS_TPSA>
32.7

> <PUBCHEM_MONOISOTOPIC_WEIGHT>
437.212157

> <PUBCHEM_TOTAL_CHARGE>
0

> <PUBCHEM_HEAVY_ATOM_COUNT>
31

> <PUBCHEM_ATOM_DEF_STEREO_COUNT>
0

> <PUBCHEM_ATOM_UDEF_STEREO_COUNT>
1

> <PUBCHEM_BOND_DEF_STEREO_COUNT>
0

> <PUBCHEM_BOND_UDEF_STEREO_COUNT>
0

> <PUBCHEM_ISOTOPIC_ATOM_COUNT>
0

> <PUBCHEM_COMPONENT_COUNT>
1

> <PUBCHEM_CACTVS_TAUTO_COUNT>
1

> <PUBCHEM_COORDINATE_TYPE>
1
5
255

> <PUBCHEM_BONDANNOTATIONS>
10  16  8
11  17  8
12  18  8
13  19  8
14  16  8
14  17  8
18  23  8
19  23  8
20  26  8
21  27  8
26  29  8
27  29  8
5  6  3
7  10  8
7  11  8
8  12  8
8  13  8
9  20  8
9  21  8

> <DRUG_ID>
w134

> <DRUG_NAME>
Triparanol

$$$$
26602
  CDK     0927151942
null
 35 35  0  0  0  0  0  0  0  0999 V2000
    2.8660   -4.0000    0.0000 Cl  0  0  0  0  0  0  0  0  0  0  0  0
    5.4641    2.5000    0.0000 O   0  0  0  0  0  0  0  0  0  0  0  0
    3.7320    2.5000    0.0000 O   0  0  0  0  0  0  0  0  0  0  0  0
    4.5981    1.0000    0.0000 N   0  0  0  0  0  0  0  0  0  0  0  0
    3.7320    0.5000    0.0000 C   0  0  0  0  0  0  0  0  0  0  0  0
    2.8660    0.0000    0.0000 C   0  0  0  0  0  0  0  0  0  0  0  0
    3.2320    1.3660    0.0000 C   0  0  0  0  0  0  0  0  0  0  0  0
    4.2320   -0.3660    0.0000 C   0  0  0  0  0  0  0  0  0  0  0  0
    2.8660   -1.0000    0.0000 C   0  0  0  0  0  0  0  0  0  0  0  0
    2.0000   -1.5000    0.0000 C   0  0  0  0  0  0  0  0  0  0  0  0
    3.7320   -1.5000    0.0000 C   0  0  0  0  0  0  0  0  0  0  0  0
    4.5981    2.0000    0.0000 C   0  0  0  0  0  0  0  0  0  0  0  0
    2.0000   -2.5000    0.0000 C   0  0  0  0  0  0  0  0  0  0  0  0
    3.7320   -2.5000    0.0000 C   0  0  0  0  0  0  0  0  0  0  0  0
    2.8660   -3.0000    0.0000 C   0  0  0  0  0  0  0  0  0  0  0  0
    5.4641    3.5000    0.0000 C   0  0  0  0  0  0  0  0  0  0  0  0
    6.3301    4.0000    0.0000 C   0  0  0  0  0  0  0  0  0  0  0  0
    2.6540    0.5826    0.0000 H   0  0  0  0  0  0  0  0  0  0  0  0
    2.2554   -0.1077    0.0000 H   0  0  0  0  0  0  0  0  0  0  0  0
    3.7690    1.6760    0.0000 H   0  0  0  0  0  0  0  0  0  0  0  0
    2.9220    1.9030    0.0000 H   0  0  0  0  0  0  0  0  0  0  0  0
    2.6951    1.0560    0.0000 H   0  0  0  0  0  0  0  0  0  0  0  0
    3.6951   -0.6760    0.0000 H   0  0  0  0  0  0  0  0  0  0  0  0
    4.5420   -0.9030    0.0000 H   0  0  0  0  0  0  0  0  0  0  0  0
    4.7690   -0.0560    0.0000 H   0  0  0  0  0  0  0  0  0  0  0  0
    5.1350    0.6900    0.0000 H   0  0  0  0  0  0  0  0  0  0  0  0
    1.4631   -1.1900    0.0000 H   0  0  0  0  0  0  0  0  0  0  0  0
    4.2690   -1.1900    0.0000 H   0  0  0  0  0  0  0  0  0  0  0  0
    1.4631   -2.8100    0.0000 H   0  0  0  0  0  0  0  0  0  0  0  0
    4.2690   -2.8100    0.0000 H   0  0  0  0  0  0  0  0  0  0  0  0
    5.2520    4.0826    0.0000 H   0  0  0  0  0  0  0  0  0  0  0  0
    4.8535    3.3923    0.0000 H   0  0  0  0  0  0  0  0  0  0  0  0
    6.6401    3.4631    0.0000 H   0  0  0  0  0  0  0  0  0  0  0  0
    6.8671    4.3100    0.0000 H   0  0  0  0  0  0  0  0  0  0  0  0
    6.0201    4.5369    0.0000 H   0  0  0  0  0  0  0  0  0  0  0  0
  1 15  1  0  0  0  0 
  2 12  1  0  0  0  0 
  2 16  1  0  0  0  0 
  3 12  2  0  0  0  0 
  4  5  1  0  0  0  0 
  4 12  1  0  0  0  0 
  4 26  1  0  0  0  0 
  5  6  1  0  0  0  0 
  5  7  1  0  0  0  0 
  5  8  1  0  0  0  0 
  6  9  1  0  0  0  0 
  6 18  1  0  0  0  0 
  6 19  1  0  0  0  0 
  7 20  1  0  0  0  0 
  7 21  1  0  0  0  0 
  7 22  1  0  0  0  0 
  8 23  1  0  0  0  0 
  8 24  1  0  0  0  0 
  8 25  1  0  0  0  0 
  9 10  2  0  0  0  0 
  9 11  1  0  0  0  0 
 10 13  1  0  0  0  0 
 10 27  1  0  0  0  0 
 11 14  2  0  0  0  0 
 11 28  1  0  0  0  0 
 13 15  2  0  0  0  0 
 13 29  1  0  0  0  0 
 14 15  1  0  0  0  0 
 14 30  1  0  0  0  0 
 16 17  1  0  0  0  0 
 16 31  1  0  0  0  0 
 16 32  1  0  0  0  0 
 17 33  1  0  0  0  0 
 17 34  1  0  0  0  0 
 17 35  1  0  0  0  0 
M  END
> <cdk:Title>
26602

> <cdk:Remark>
null

> <PUBCHEM_COMPOUND_CID>
26602

> <PUBCHEM_COMPOUND_CANONICALIZED>
1

> <PUBCHEM_CACTVS_COMPLEXITY>
248

> <PUBCHEM_CACTVS_HBOND_ACCEPTOR>
2

> <PUBCHEM_CACTVS_HBOND_DONOR>
1

> <PUBCHEM_CACTVS_ROTATABLE_BOND>
5

> <PUBCHEM_CACTVS_SUBSKEYS>
AAADceByMAAEAAAAAAAAAAAAAAAAAAAAAAAwAAAAAAAAAAABAAAAHgIQAAAADIqhmCIyCILABACIAiBCGAACAAAgBQAIiAAAAokIICKBkxGMIAAglAAIiAcQgMAOBAAAAAAAAAAIAAAAAAAAAAAAAAAAAA==

> <PUBCHEM_IUPAC_OPENEYE_NAME>
ethyl N-[2-(4-chlorophenyl)-1,1-dimethyl-ethyl]carbamate

> <PUBCHEM_IUPAC_CAS_NAME>
N-[1-(4-chlorophenyl)-2-methylpropan-2-yl]carbamic acid ethyl ester

> <PUBCHEM_IUPAC_NAME>
ethyl N-[1-(4-chlorophenyl)-2-methylpropan-2-yl]carbamate

> <PUBCHEM_IUPAC_SYSTEMATIC_NAME>
ethyl N-[1-(4-chlorophenyl)-2-methyl-propan-2-yl]carbamate

> <PUBCHEM_IUPAC_TRADITIONAL_NAME>
N-[2-(4-chlorophenyl)-1,1-dimethyl-ethyl]carbamic acid ethyl ester

> <PUBCHEM_IUPAC_INCHI>
InChI=1S/C13H18ClNO2/c1-4-17-12(16)15-13(2,3)9-10-5-7-11(14)8-6-10/h5-8H,4,9H2,1-3H3,(H,15,16)

> <PUBCHEM_IUPAC_INCHIKEY>
TZWKUQDQKPYNLL-UHFFFAOYSA-N

> <PUBCHEM_XLOGP3_AA>
3.5

> <PUBCHEM_EXACT_MASS>
255.102607

> <PUBCHEM_MOLECULAR_FORMULA>
C13H18ClNO2

> <PUBCHEM_MOLECULAR_WEIGHT>
255.74052

> <PUBCHEM_OPENEYE_CAN_SMILES>
CCOC(=O)NC(C)(C)CC1=CC=C(C=C1)Cl

> <PUBCHEM_OPENEYE_ISO_SMILES>
CCOC(=O)NC(C)(C)CC1=CC=C(C=C1)Cl

> <PUBCHEM_CACTVS_TPSA>
38.3

> <PUBCHEM_MONOISOTOPIC_WEIGHT>
255.102607

> <PUBCHEM_TOTAL_CHARGE>
0

> <PUBCHEM_HEAVY_ATOM_COUNT>
17

> <PUBCHEM_ATOM_DEF_STEREO_COUNT>
0

> <PUBCHEM_ATOM_UDEF_STEREO_COUNT>
0

> <PUBCHEM_BOND_DEF_STEREO_COUNT>
0

> <PUBCHEM_BOND_UDEF_STEREO_COUNT>
0

> <PUBCHEM_ISOTOPIC_ATOM_COUNT>
0

> <PUBCHEM_COMPONENT_COUNT>
1

> <PUBCHEM_CACTVS_TAUTO_COUNT>
2

> <PUBCHEM_COORDINATE_TYPE>
1
5
255

> <PUBCHEM_BONDANNOTATIONS>
10  13  8
11  14  8
13  15  8
14  15  8
9  10  8
9  11  8

> <DRUG_ID>
w135

> <DRUG_NAME>
Cloforex

$$$$
5426
  CDK     0927151942
null
 29 31  0  0  0  0  0  0  0  0999 V2000
    6.2619   -1.7320    0.0000 O   0  0  0  0  0  0  0  0  0  0  0  0
    4.9889    1.7552    0.0000 O   0  0  0  0  0  0  0  0  0  0  0  0
    4.9889   -1.7552    0.0000 O   0  0  0  0  0  0  0  0  0  0  0  0
    9.2619    0.0000    0.0000 O   0  0  0  0  0  0  0  0  0  0  0  0
    5.2619    0.0000    0.0000 N   0  0  0  0  0  0  0  0  0  0  0  0
    7.7619   -0.8660    0.0000 N   0  0  0  0  0  0  0  0  0  0  0  0
    6.2619    0.0000    0.0000 C   0  0  3  0  0  0  0  0  0  0  0  0
    6.7619    0.8660    0.0000 C   0  0  0  0  0  0  0  0  0  0  0  0
    7.7619    0.8660    0.0000 C   0  0  0  0  0  0  0  0  0  0  0  0
    6.7619   -0.8660    0.0000 C   0  0  0  0  0  0  0  0  0  0  0  0
    4.6783    0.8047    0.0000 C   0  0  0  0  0  0  0  0  0  0  0  0
    4.6783   -0.8047    0.0000 C   0  0  0  0  0  0  0  0  0  0  0  0
    3.7320    0.5000    0.0000 C   0  0  0  0  0  0  0  0  0  0  0  0
    3.7320   -0.5000    0.0000 C   0  0  0  0  0  0  0  0  0  0  0  0
    8.2619    0.0000    0.0000 C   0  0  0  0  0  0  0  0  0  0  0  0
    2.8660   -1.0000    0.0000 C   0  0  0  0  0  0  0  0  0  0  0  0
    2.8660    1.0000    0.0000 C   0  0  0  0  0  0  0  0  0  0  0  0
    2.0000   -0.5000    0.0000 C   0  0  0  0  0  0  0  0  0  0  0  0
    2.0000    0.5000    0.0000 C   0  0  0  0  0  0  0  0  0  0  0  0
    5.9519   -0.5369    0.0000 H   0  0  0  0  0  0  0  0  0  0  0  0
    6.8695    1.4766    0.0000 H   0  0  0  0  0  0  0  0  0  0  0  0
    6.1793    1.0781    0.0000 H   0  0  0  0  0  0  0  0  0  0  0  0
    8.3445    1.0781    0.0000 H   0  0  0  0  0  0  0  0  0  0  0  0
    7.6542    1.4766    0.0000 H   0  0  0  0  0  0  0  0  0  0  0  0
    8.0719   -1.4030    0.0000 H   0  0  0  0  0  0  0  0  0  0  0  0
    2.8660    1.6200    0.0000 H   0  0  0  0  0  0  0  0  0  0  0  0
    2.8660   -1.6200    0.0000 H   0  0  0  0  0  0  0  0  0  0  0  0
    1.4631    0.8100    0.0000 H   0  0  0  0  0  0  0  0  0  0  0  0
    1.4631   -0.8100    0.0000 H   0  0  0  0  0  0  0  0  0  0  0  0
  1 10  2  0  0  0  0 
  2 11  2  0  0  0  0 
  3 12  2  0  0  0  0 
  4 15  2  0  0  0  0 
  5  7  1  0  0  0  0 
  5 11  1  0  0  0  0 
  5 12  1  0  0  0  0 
  6 10  1  0  0  0  0 
  6 15  1  0  0  0  0 
  6 25  1  0  0  0  0 
  7  8  1  0  0  0  0 
  7 10  1  0  0  0  0 
  7 20  1  0  0  0  0 
  8  9  1  0  0  0  0 
  8 21  1  0  0  0  0 
  8 22  1  0  0  0  0 
  9 15  1  0  0  0  0 
  9 23  1  0  0  0  0 
  9 24  1  0  0  0  0 
 11 13  1  0  0  0  0 
 12 14  1  0  0  0  0 
 13 14  1  0  0  0  0 
 13 17  2  0  0  0  0 
 14 16  2  0  0  0  0 
 16 18  1  0  0  0  0 
 16 27  1  0  0  0  0 
 17 19  1  0  0  0  0 
 17 26  1  0  0  0  0 
 18 19  2  0  0  0  0 
 18 29  1  0  0  0  0 
 19 28  1  0  0  0  0 
M  END
> <cdk:Title>
5426

> <cdk:Remark>
null

> <PUBCHEM_COMPOUND_CID>
5426

> <PUBCHEM_COMPOUND_CANONICALIZED>
1

> <PUBCHEM_CACTVS_COMPLEXITY>
449

> <PUBCHEM_CACTVS_HBOND_ACCEPTOR>
4

> <PUBCHEM_CACTVS_HBOND_DONOR>
1

> <PUBCHEM_CACTVS_ROTATABLE_BOND>
1

> <PUBCHEM_CACTVS_SUBSKEYS>
AAADccBzOAAAAAAAAAAAAAAAAAAAAWAAAAA8QAAAAAAAAFgBAAAAHgAQAAAADCjBmAQwAIPAAACIAiFSEACCAAAkAAAIiAGIBMgIYDKAlTGUIQhgliCIiYcdi4COgAAAAAAQAAAAAAAAACAAAAAAAAAAAA==

> <PUBCHEM_IUPAC_OPENEYE_NAME>
2-(2,6-dioxo-3-piperidyl)isoindoline-1,3-dione

> <PUBCHEM_IUPAC_CAS_NAME>
2-(2,6-dioxo-3-piperidinyl)isoindole-1,3-dione

> <PUBCHEM_IUPAC_NAME>
2-(2,6-dioxopiperidin-3-yl)isoindole-1,3-dione

> <PUBCHEM_IUPAC_SYSTEMATIC_NAME>
2-[2,6-bis(oxidanylidene)piperidin-3-yl]isoindole-1,3-dione

> <PUBCHEM_IUPAC_TRADITIONAL_NAME>
thalidomide

> <PUBCHEM_IUPAC_INCHI>
InChI=1S/C13H10N2O4/c16-10-6-5-9(11(17)14-10)15-12(18)7-3-1-2-4-8(7)13(15)19/h1-4,9H,5-6H2,(H,14,16,17)

> <PUBCHEM_IUPAC_INCHIKEY>
UEJJHQNACJXSKW-UHFFFAOYSA-N

> <PUBCHEM_XLOGP3>
0.3

> <PUBCHEM_EXACT_MASS>
258.064057

> <PUBCHEM_MOLECULAR_FORMULA>
C13H10N2O4

> <PUBCHEM_MOLECULAR_WEIGHT>
258.2295

> <PUBCHEM_OPENEYE_CAN_SMILES>
C1CC(=O)NC(=O)C1N2C(=O)C3=CC=CC=C3C2=O

> <PUBCHEM_OPENEYE_ISO_SMILES>
C1CC(=O)NC(=O)C1N2C(=O)C3=CC=CC=C3C2=O

> <PUBCHEM_CACTVS_TPSA>
83.6

> <PUBCHEM_MONOISOTOPIC_WEIGHT>
258.064057

> <PUBCHEM_TOTAL_CHARGE>
0

> <PUBCHEM_HEAVY_ATOM_COUNT>
19

> <PUBCHEM_ATOM_DEF_STEREO_COUNT>
0

> <PUBCHEM_ATOM_UDEF_STEREO_COUNT>
1

> <PUBCHEM_BOND_DEF_STEREO_COUNT>
0

> <PUBCHEM_BOND_UDEF_STEREO_COUNT>
0

> <PUBCHEM_ISOTOPIC_ATOM_COUNT>
0

> <PUBCHEM_COMPONENT_COUNT>
1

> <PUBCHEM_CACTVS_TAUTO_COUNT>
8

> <PUBCHEM_COORDINATE_TYPE>
1
5
255

> <PUBCHEM_BONDANNOTATIONS>
13  14  8
13  17  8
14  16  8
16  18  8
17  19  8
18  19  8
7  5  3

> <DRUG_ID>
w136

> <DRUG_NAME>
Thalidomide

$$$$
23480
  CDK     0927151942
null
 48 49  0  0  0  0  0  0  0  0999 V2000
    3.0000    1.5000    0.0000 N   0  0  0  0  0  0  0  0  0  0  0  0
    3.8660    1.0000    0.0000 C   0  0  3  0  0  0  0  0  0  0  0  0
    3.8660    0.0000    0.0000 C   0  0  0  0  0  0  0  0  0  0  0  0
    3.0000    2.5000    0.0000 C   0  0  0  0  0  0  0  0  0  0  0  0
    4.7320   -0.5000    0.0000 C   0  0  0  0  0  0  0  0  0  0  0  0
    4.7320    1.5000    0.0000 C   0  0  0  0  0  0  0  0  0  0  0  0
    4.7320   -1.5000    0.0000 C   0  0  0  0  0  0  0  0  0  0  0  0
    5.5981    0.0000    0.0000 C   0  0  0  0  0  0  0  0  0  0  0  0
    3.0000    3.5000    0.0000 C   0  0  0  0  0  0  0  0  0  0  0  0
    2.0000    2.5000    0.0000 C   0  0  0  0  0  0  0  0  0  0  0  0
    4.0000    2.5000    0.0000 C   0  0  0  0  0  0  0  0  0  0  0  0
    5.5981   -2.0000    0.0000 C   0  0  0  0  0  0  0  0  0  0  0  0
    5.5981    1.0000    0.0000 C   0  0  0  0  0  0  0  0  0  0  0  0
    3.8660   -2.0000    0.0000 C   0  0  0  0  0  0  0  0  0  0  0  0
    6.4641   -0.5000    0.0000 C   0  0  0  0  0  0  0  0  0  0  0  0
    5.5981   -3.0000    0.0000 C   0  0  0  0  0  0  0  0  0  0  0  0
    6.4641    1.5000    0.0000 C   0  0  0  0  0  0  0  0  0  0  0  0
    3.8660   -3.0000    0.0000 C   0  0  0  0  0  0  0  0  0  0  0  0
    7.3301    0.0000    0.0000 C   0  0  0  0  0  0  0  0  0  0  0  0
    4.7320   -3.5000    0.0000 C   0  0  0  0  0  0  0  0  0  0  0  0
    7.3301    1.0000    0.0000 C   0  0  0  0  0  0  0  0  0  0  0  0
    3.8660    1.6200    0.0000 H   0  0  0  0  0  0  0  0  0  0  0  0
    3.2554    0.1077    0.0000 H   0  0  0  0  0  0  0  0  0  0  0  0
    3.6540   -0.5826    0.0000 H   0  0  0  0  0  0  0  0  0  0  0  0
    4.7320    0.1200    0.0000 H   0  0  0  0  0  0  0  0  0  0  0  0
    2.4631    1.1900    0.0000 H   0  0  0  0  0  0  0  0  0  0  0  0
    5.0420    0.9631    0.0000 H   0  0  0  0  0  0  0  0  0  0  0  0
    5.2690    1.8100    0.0000 H   0  0  0  0  0  0  0  0  0  0  0  0
    4.4220    2.0369    0.0000 H   0  0  0  0  0  0  0  0  0  0  0  0
    3.6200    3.5000    0.0000 H   0  0  0  0  0  0  0  0  0  0  0  0
    3.0000    4.1200    0.0000 H   0  0  0  0  0  0  0  0  0  0  0  0
    2.3800    3.5000    0.0000 H   0  0  0  0  0  0  0  0  0  0  0  0
    2.0000    3.1200    0.0000 H   0  0  0  0  0  0  0  0  0  0  0  0
    1.3800    2.5000    0.0000 H   0  0  0  0  0  0  0  0  0  0  0  0
    2.0000    1.8800    0.0000 H   0  0  0  0  0  0  0  0  0  0  0  0
    4.0000    1.8800    0.0000 H   0  0  0  0  0  0  0  0  0  0  0  0
    4.6200    2.5000    0.0000 H   0  0  0  0  0  0  0  0  0  0  0  0
    4.0000    3.1200    0.0000 H   0  0  0  0  0  0  0  0  0  0  0  0
    5.0611    1.3100    0.0000 H   0  0  0  0  0  0  0  0  0  0  0  0
    6.1350   -1.6900    0.0000 H   0  0  0  0  0  0  0  0  0  0  0  0
    6.4641   -1.1200    0.0000 H   0  0  0  0  0  0  0  0  0  0  0  0
    3.3291   -1.6900    0.0000 H   0  0  0  0  0  0  0  0  0  0  0  0
    6.1350   -3.3100    0.0000 H   0  0  0  0  0  0  0  0  0  0  0  0
    6.4641    2.1200    0.0000 H   0  0  0  0  0  0  0  0  0  0  0  0
    7.8671   -0.3100    0.0000 H   0  0  0  0  0  0  0  0  0  0  0  0
    3.3291   -3.3100    0.0000 H   0  0  0  0  0  0  0  0  0  0  0  0
    4.7320   -4.1200    0.0000 H   0  0  0  0  0  0  0  0  0  0  0  0
    7.8671    1.3100    0.0000 H   0  0  0  0  0  0  0  0  0  0  0  0
  1  2  1  0  0  0  0 
  1  4  1  0  0  0  0 
  1 26  1  0  0  0  0 
  2  3  1  0  0  0  0 
  2  6  1  0  0  0  0 
  2 22  1  0  0  0  0 
  3  5  1  0  0  0  0 
  3 23  1  0  0  0  0 
  3 24  1  0  0  0  0 
  4  9  1  0  0  0  0 
  4 10  1  0  0  0  0 
  4 11  1  0  0  0  0 
  5  7  1  0  0  0  0 
  5  8  1  0  0  0  0 
  5 25  1  0  0  0  0 
  6 27  1  0  0  0  0 
  6 28  1  0  0  0  0 
  6 29  1  0  0  0  0 
  7 12  2  0  0  0  0 
  7 14  1  0  0  0  0 
  8 13  2  0  0  0  0 
  8 15  1  0  0  0  0 
  9 30  1  0  0  0  0 
  9 31  1  0  0  0  0 
  9 32  1  0  0  0  0 
 10 33  1  0  0  0  0 
 10 34  1  0  0  0  0 
 10 35  1  0  0  0  0 
 11 36  1  0  0  0  0 
 11 37  1  0  0  0  0 
 11 38  1  0  0  0  0 
 12 16  1  0  0  0  0 
 12 40  1  0  0  0  0 
 13 17  1  0  0  0  0 
 13 39  1  0  0  0  0 
 14 18  2  0  0  0  0 
 14 42  1  0  0  0  0 
 15 19  2  0  0  0  0 
 15 41  1  0  0  0  0 
 16 20  2  0  0  0  0 
 16 43  1  0  0  0  0 
 17 21  2  0  0  0  0 
 17 44  1  0  0  0  0 
 18 20  1  0  0  0  0 
 18 46  1  0  0  0  0 
 19 21  1  0  0  0  0 
 19 45  1  0  0  0  0 
 20 47  1  0  0  0  0 
 21 48  1  0  0  0  0 
M  END
> <cdk:Title>
23480

> <cdk:Remark>
null

> <PUBCHEM_COMPOUND_CID>
23480

> <PUBCHEM_COMPOUND_CANONICALIZED>
1

> <PUBCHEM_CACTVS_COMPLEXITY>
261

> <PUBCHEM_CACTVS_HBOND_ACCEPTOR>
1

> <PUBCHEM_CACTVS_HBOND_DONOR>
1

> <PUBCHEM_CACTVS_ROTATABLE_BOND>
6

> <PUBCHEM_CACTVS_SUBSKEYS>
AAADceB6AAAAAAAAAAAAAAAAAAAAAAAAAAAwYAAAAAAAAAABQAAAHAAQAAAADajBGAQyAILAAACAAiBCAAACAAAgAAAIiIAIAIgIICKAkRCEIAAgkACIiAcQgMAOgAAAAAAAAAAAAAAAAAAAAAAAAAAAAA==

> <PUBCHEM_IUPAC_OPENEYE_NAME>
N-tert-butyl-4,4-diphenyl-butan-2-amine

> <PUBCHEM_IUPAC_CAS_NAME>
N-tert-butyl-4,4-diphenyl-2-butanamine

> <PUBCHEM_IUPAC_NAME>
N-tert-butyl-4,4-diphenylbutan-2-amine

> <PUBCHEM_IUPAC_SYSTEMATIC_NAME>
N-tert-butyl-4,4-diphenyl-butan-2-amine

> <PUBCHEM_IUPAC_TRADITIONAL_NAME>
tert-butyl-(1-methyl-3,3-diphenyl-propyl)amine

> <PUBCHEM_IUPAC_INCHI>
InChI=1S/C20H27N/c1-16(21-20(2,3)4)15-19(17-11-7-5-8-12-17)18-13-9-6-10-14-18/h5-14,16,19,21H,15H2,1-4H3

> <PUBCHEM_IUPAC_INCHIKEY>
UISARWKNNNHPGI-UHFFFAOYSA-N

> <PUBCHEM_XLOGP3_AA>
5

> <PUBCHEM_EXACT_MASS>
281.21435

> <PUBCHEM_MOLECULAR_FORMULA>
C20H27N

> <PUBCHEM_MOLECULAR_WEIGHT>
281.43508

> <PUBCHEM_OPENEYE_CAN_SMILES>
CC(CC(C1=CC=CC=C1)C2=CC=CC=C2)NC(C)(C)C

> <PUBCHEM_OPENEYE_ISO_SMILES>
CC(CC(C1=CC=CC=C1)C2=CC=CC=C2)NC(C)(C)C

> <PUBCHEM_CACTVS_TPSA>
12

> <PUBCHEM_MONOISOTOPIC_WEIGHT>
281.21435

> <PUBCHEM_TOTAL_CHARGE>
0

> <PUBCHEM_HEAVY_ATOM_COUNT>
21

> <PUBCHEM_ATOM_DEF_STEREO_COUNT>
0

> <PUBCHEM_ATOM_UDEF_STEREO_COUNT>
1

> <PUBCHEM_BOND_DEF_STEREO_COUNT>
0

> <PUBCHEM_BOND_UDEF_STEREO_COUNT>
0

> <PUBCHEM_ISOTOPIC_ATOM_COUNT>
0

> <PUBCHEM_COMPONENT_COUNT>
1

> <PUBCHEM_CACTVS_TAUTO_COUNT>
1

> <PUBCHEM_COORDINATE_TYPE>
1
5
255

> <PUBCHEM_BONDANNOTATIONS>
12  16  8
13  17  8
14  18  8
15  19  8
16  20  8
17  21  8
18  20  8
19  21  8
2  6  3
7  12  8
7  14  8
8  13  8
8  15  8

> <DRUG_ID>
w137

> <DRUG_NAME>
Terodiline

$$$$
13789
  CDK     0927151942
null
 53 57  0  0  0  0  0  0  0  0999 V2000
    4.5695   -2.7418    0.0000 O   0  0  0  0  0  0  0  0  0  0  0  0
    5.9525   -3.8657    0.0000 O   0  0  0  0  0  0  0  0  0  0  0  0
    3.8372    4.3239    0.0000 O   0  0  0  0  0  0  0  0  0  0  0  0
    3.7841   -1.8728    0.0000 C   0  0  1  0  0  0  0  0  0  0  0  0
    2.9180   -1.3728    0.0000 C   0  0  2  0  0  0  0  0  0  0  0  0
    3.5748   -2.8446    0.0000 C   0  0  2  0  0  0  0  0  0  0  0  0
    2.9180   -0.3728    0.0000 C   0  0  1  0  0  0  0  0  0  0  0  0
    3.7841    0.1272    0.0000 C   0  0  2  0  0  0  0  0  0  0  0  0
    4.6501   -1.3728    0.0000 C   0  0  0  0  0  0  0  0  0  0  0  0
    2.1810   -2.0399    0.0000 C   0  0  0  0  0  0  0  0  0  0  0  0
    2.5861   -2.9477    0.0000 C   0  0  0  0  0  0  0  0  0  0  0  0
    4.6501   -0.3728    0.0000 C   0  0  0  0  0  0  0  0  0  0  0  0
    3.8001    1.1687    0.0000 C   0  0  2  0  0  0  0  0  0  0  0  0
    3.3652   -3.8224    0.0000 C   0  0  0  0  0  0  0  0  0  0  0  0
    4.7689   -2.0464    0.0000 C   0  0  0  0  0  0  0  0  0  0  0  0
    2.0080    0.1340    0.0000 C   0  0  0  0  0  0  0  0  0  0  0  0
    2.9021    1.6964    0.0000 C   0  0  0  0  0  0  0  0  0  0  0  0
    4.7520    1.6893    0.0000 C   0  0  0  0  0  0  0  0  0  0  0  0
    4.2304   -4.3239    0.0000 C   0  0  0  0  0  0  0  0  0  0  0  0
    4.6623    0.6620    0.0000 C   0  0  0  0  0  0  0  0  0  0  0  0
    2.0000    1.1756    0.0000 C   0  0  0  0  0  0  0  0  0  0  0  0
    4.9747   -3.6561    0.0000 C   0  0  0  0  0  0  0  0  0  0  0  0
    4.7688    2.7742    0.0000 C   0  0  0  0  0  0  0  0  0  0  0  0
    2.8937    2.7814    0.0000 C   0  0  0  0  0  0  0  0  0  0  0  0
    3.8334    3.3239    0.0000 C   0  0  0  0  0  0  0  0  0  0  0  0
    2.1411   -1.0281    0.0000 H   0  0  0  0  0  0  0  0  0  0  0  0
    2.1852   -0.8035    0.0000 H   0  0  0  0  0  0  0  0  0  0  0  0
    4.5234    0.5465    0.0000 H   0  0  0  0  0  0  0  0  0  0  0  0
    4.8621   -1.9554    0.0000 H   0  0  0  0  0  0  0  0  0  0  0  0
    5.2607   -1.2651    0.0000 H   0  0  0  0  0  0  0  0  0  0  0  0
    1.8156   -1.5390    0.0000 H   0  0  0  0  0  0  0  0  0  0  0  0
    1.6445   -2.3507    0.0000 H   0  0  0  0  0  0  0  0  0  0  0  0
    1.9965   -3.1394    0.0000 H   0  0  0  0  0  0  0  0  0  0  0  0
    2.7149   -3.5542    0.0000 H   0  0  0  0  0  0  0  0  0  0  0  0
    5.2607   -0.4805    0.0000 H   0  0  0  0  0  0  0  0  0  0  0  0
    4.8621    0.2098    0.0000 H   0  0  0  0  0  0  0  0  0  0  0  0
    2.7759   -3.6298    0.0000 H   0  0  0  0  0  0  0  0  0  0  0  0
    3.1121   -4.3884    0.0000 H   0  0  0  0  0  0  0  0  0  0  0  0
    4.6612   -2.6570    0.0000 H   0  0  0  0  0  0  0  0  0  0  0  0
    5.3794   -2.1541    0.0000 H   0  0  0  0  0  0  0  0  0  0  0  0
    4.8765   -1.4359    0.0000 H   0  0  0  0  0  0  0  0  0  0  0  0
    1.4747   -0.1821    0.0000 H   0  0  0  0  0  0  0  0  0  0  0  0
    4.9521    1.1025    0.0000 H   0  0  0  0  0  0  0  0  0  0  0  0
    5.3645    1.7860    0.0000 H   0  0  0  0  0  0  0  0  0  0  0  0
    3.8651   -4.8249    0.0000 H   0  0  0  0  0  0  0  0  0  0  0  0
    4.6904   -4.7396    0.0000 H   0  0  0  0  0  0  0  0  0  0  0  0
    4.3481    0.1275    0.0000 H   0  0  0  0  0  0  0  0  0  0  0  0
    5.1968    0.3479    0.0000 H   0  0  0  0  0  0  0  0  0  0  0  0
    4.9764    1.1966    0.0000 H   0  0  0  0  0  0  0  0  0  0  0  0
    1.4619    1.4836    0.0000 H   0  0  0  0  0  0  0  0  0  0  0  0
    5.3779    2.6587    0.0000 H   0  0  0  0  0  0  0  0  0  0  0  0
    4.9868    3.3546    0.0000 H   0  0  0  0  0  0  0  0  0  0  0  0
    2.3556    3.0894    0.0000 H   0  0  0  0  0  0  0  0  0  0  0  0
  6  1  1  1  0  0  0 
  1 22  1  0  0  0  0 
  2 22  2  0  0  0  0 
  3 25  2  0  0  0  0 
  4  5  1  0  0  0  0 
  4  6  1  0  0  0  0 
  4  9  1  0  0  0  0 
  4 15  1  1  0  0  0 
  5  7  1  0  0  0  0 
  5 10  1  0  0  0  0 
  5 26  1  6  0  0  0 
  6 11  1  0  0  0  0 
  6 14  1  0  0  0  0 
  7  8  1  0  0  0  0 
  7 16  1  0  0  0  0 
  7 27  1  1  0  0  0 
  8 12  1  0  0  0  0 
  8 13  1  0  0  0  0 
  8 28  1  6  0  0  0 
  9 12  1  0  0  0  0 
  9 29  1  0  0  0  0 
  9 30  1  0  0  0  0 
 10 11  1  0  0  0  0 
 10 31  1  0  0  0  0 
 10 32  1  0  0  0  0 
 11 33  1  0  0  0  0 
 11 34  1  0  0  0  0 
 12 35  1  0  0  0  0 
 12 36  1  0  0  0  0 
 13 17  1  0  0  0  0 
 13 18  1  0  0  0  0 
 13 20  1  1  0  0  0 
 14 19  1  0  0  0  0 
 14 37  1  0  0  0  0 
 14 38  1  0  0  0  0 
 15 39  1  0  0  0  0 
 15 40  1  0  0  0  0 
 15 41  1  0  0  0  0 
 16 21  2  0  0  0  0 
 16 42  1  0  0  0  0 
 17 21  1  0  0  0  0 
 17 24  2  0  0  0  0 
 18 23  1  0  0  0  0 
 18 43  1  0  0  0  0 
 18 44  1  0  0  0  0 
 19 22  1  0  0  0  0 
 19 45  1  0  0  0  0 
 19 46  1  0  0  0  0 
 20 47  1  0  0  0  0 
 20 48  1  0  0  0  0 
 20 49  1  0  0  0  0 
 21 50  1  0  0  0  0 
 23 25  1  0  0  0  0 
 23 51  1  0  0  0  0 
 23 52  1  0  0  0  0 
 24 25  1  0  0  0  0 
 24 53  1  0  0  0  0 
M  END
> <cdk:Title>
13789

> <cdk:Remark>
null

> <PUBCHEM_COMPOUND_CID>
13789

> <PUBCHEM_COMPOUND_CANONICALIZED>
1

> <PUBCHEM_CACTVS_COMPLEXITY>
719

> <PUBCHEM_CACTVS_HBOND_ACCEPTOR>
3

> <PUBCHEM_CACTVS_HBOND_DONOR>
0

> <PUBCHEM_CACTVS_ROTATABLE_BOND>
0

> <PUBCHEM_CACTVS_SUBSKEYS>
AAADceB4MAAAAAAAAAAAAAAAAAAAAaIAAAAwQIAAAAAAAGCAAAAAGgAAAAAAD0SAgAACCAAABACIAqDSCAAAAAAgAAAICAEAAEgIABIAAQACAAAEgAAIgQOKyPCPgAAAAAAAAACAAAQAACAAAYAADAAAAA==

> <PUBCHEM_IUPAC_OPENEYE_NAME>
(8R,9S,10R,13S,14S,17R)-10,13-dimethylspiro[2,8,9,11,12,14,15,16-octahydro-1H-cyclopenta[a]phenanthrene-17,5'-tetrahydrofuran]-2',3-dione

> <PUBCHEM_IUPAC_CAS_NAME>
(8R,9S,10R,13S,14S,17R)-10,13-dimethylspiro[2,8,9,11,12,14,15,16-octahydro-1H-cyclopenta[a]phenanthrene-17,5'-oxolane]-2',3-dione

> <PUBCHEM_IUPAC_NAME>
(8R,9S,10R,13S,14S,17R)-10,13-dimethylspiro[2,8,9,11,12,14,15,16-octahydro-1H-cyclopenta[a]phenanthrene-17,5'-oxolane]-2',3-dione

> <PUBCHEM_IUPAC_SYSTEMATIC_NAME>
(8R,9S,10R,13S,14S,17R)-10,13-dimethylspiro[2,8,9,11,12,14,15,16-octahydro-1H-cyclopenta[a]phenanthrene-17,5'-oxolane]-2',3-dione

> <PUBCHEM_IUPAC_TRADITIONAL_NAME>
(8R,9S,10R,13S,14S,17R)-10,13-dimethylspiro[2,8,9,11,12,14,15,16-octahydro-1H-cyclopenta[a]phenanthrene-17,5'-tetrahydrofuran]-2',3-quinone

> <PUBCHEM_IUPAC_INCHI>
InChI=1S/C22H28O3/c1-20-9-5-15(23)13-14(20)3-4-16-17(20)6-10-21(2)18(16)7-11-22(21)12-8-19(24)25-22/h3-4,13,16-18H,5-12H2,1-2H3/t16-,17+,18+,20+,21+,22-/m1/s1

> <PUBCHEM_IUPAC_INCHIKEY>
UJVLDDZCTMKXJK-WNHSNXHDSA-N

> <PUBCHEM_XLOGP3>
2.7

> <PUBCHEM_EXACT_MASS>
340.203845

> <PUBCHEM_MOLECULAR_FORMULA>
C22H28O3

> <PUBCHEM_MOLECULAR_WEIGHT>
340.45592

> <PUBCHEM_OPENEYE_CAN_SMILES>
CC12CCC(=O)C=C1C=CC3C2CCC4(C3CCC45CCC(=O)O5)C

> <PUBCHEM_OPENEYE_ISO_SMILES>
C[C@]12CCC(=O)C=C1C=C[C@@H]3[C@@H]2CC[C@]4([C@H]3CC[C@@]45CCC(=O)O5)C

> <PUBCHEM_CACTVS_TPSA>
43.4

> <PUBCHEM_MONOISOTOPIC_WEIGHT>
340.203845

> <PUBCHEM_TOTAL_CHARGE>
0

> <PUBCHEM_HEAVY_ATOM_COUNT>
25

> <PUBCHEM_ATOM_DEF_STEREO_COUNT>
6

> <PUBCHEM_ATOM_UDEF_STEREO_COUNT>
0

> <PUBCHEM_BOND_DEF_STEREO_COUNT>
0

> <PUBCHEM_BOND_UDEF_STEREO_COUNT>
0

> <PUBCHEM_ISOTOPIC_ATOM_COUNT>
0

> <PUBCHEM_COMPONENT_COUNT>
1

> <PUBCHEM_CACTVS_TAUTO_COUNT>
14

> <PUBCHEM_COORDINATE_TYPE>
1
5
255

> <PUBCHEM_BONDANNOTATIONS>
6  1  5
13  20  5
4  15  5
5  26  6
7  27  5
8  28  6

> <DRUG_ID>
w138

> <DRUG_NAME>
Canrenone

$$$$
5210
  CDK     0927151942
null
 45 46  0  0  0  0  0  0  0  0999 V2000
    5.0000   -2.8660    0.0000 Cl  0  0  0  0  0  0  0  0  0  0  0  0
    3.5000    2.0000    0.0000 N   0  0  0  0  0  0  0  0  0  0  0  0
    5.0000    1.1340    0.0000 C   0  0  0  0  0  0  0  0  0  0  0  0
    6.0000    1.1340    0.0000 C   0  0  0  0  0  0  0  0  0  0  0  0
    5.0000    2.1340    0.0000 C   0  0  0  0  0  0  0  0  0  0  0  0
    4.0000    1.1340    0.0000 C   0  0  3  0  0  0  0  0  0  0  0  0
    6.0000    2.1340    0.0000 C   0  0  0  0  0  0  0  0  0  0  0  0
    5.0000    0.1340    0.0000 C   0  0  0  0  0  0  0  0  0  0  0  0
    3.5000    0.2679    0.0000 C   0  0  0  0  0  0  0  0  0  0  0  0
    2.5000    0.2679    0.0000 C   0  0  0  0  0  0  0  0  0  0  0  0
    4.1340   -0.3660    0.0000 C   0  0  0  0  0  0  0  0  0  0  0  0
    5.8660   -0.3660    0.0000 C   0  0  0  0  0  0  0  0  0  0  0  0
    2.5000    2.0000    0.0000 C   0  0  0  0  0  0  0  0  0  0  0  0
    4.0000    2.8660    0.0000 C   0  0  0  0  0  0  0  0  0  0  0  0
    2.0000   -0.5981    0.0000 C   0  0  0  0  0  0  0  0  0  0  0  0
    2.0000    1.1340    0.0000 C   0  0  0  0  0  0  0  0  0  0  0  0
    4.1340   -1.3660    0.0000 C   0  0  0  0  0  0  0  0  0  0  0  0
    5.8660   -1.3660    0.0000 C   0  0  0  0  0  0  0  0  0  0  0  0
    5.0000   -1.8660    0.0000 C   0  0  0  0  0  0  0  0  0  0  0  0
    5.0000    2.7540    0.0000 H   0  0  0  0  0  0  0  0  0  0  0  0
    4.3800    2.1340    0.0000 H   0  0  0  0  0  0  0  0  0  0  0  0
    6.0000    0.5140    0.0000 H   0  0  0  0  0  0  0  0  0  0  0  0
    6.6200    1.1340    0.0000 H   0  0  0  0  0  0  0  0  0  0  0  0
    3.3800    1.1340    0.0000 H   0  0  0  0  0  0  0  0  0  0  0  0
    6.6200    2.1340    0.0000 H   0  0  0  0  0  0  0  0  0  0  0  0
    6.0000    2.7540    0.0000 H   0  0  0  0  0  0  0  0  0  0  0  0
    3.3923   -0.3426    0.0000 H   0  0  0  0  0  0  0  0  0  0  0  0
    4.0826    0.0559    0.0000 H   0  0  0  0  0  0  0  0  0  0  0  0
    2.8100    0.8049    0.0000 H   0  0  0  0  0  0  0  0  0  0  0  0
    3.5970   -0.0560    0.0000 H   0  0  0  0  0  0  0  0  0  0  0  0
    6.4030   -0.0560    0.0000 H   0  0  0  0  0  0  0  0  0  0  0  0
    2.5000    2.6200    0.0000 H   0  0  0  0  0  0  0  0  0  0  0  0
    1.8800    2.0000    0.0000 H   0  0  0  0  0  0  0  0  0  0  0  0
    2.5000    1.3800    0.0000 H   0  0  0  0  0  0  0  0  0  0  0  0
    4.5369    2.5560    0.0000 H   0  0  0  0  0  0  0  0  0  0  0  0
    4.3100    3.4030    0.0000 H   0  0  0  0  0  0  0  0  0  0  0  0
    3.4631    3.1760    0.0000 H   0  0  0  0  0  0  0  0  0  0  0  0
    1.4631   -0.2881    0.0000 H   0  0  0  0  0  0  0  0  0  0  0  0
    1.6900   -1.1350    0.0000 H   0  0  0  0  0  0  0  0  0  0  0  0
    2.5369    1.4440    0.0000 H   0  0  0  0  0  0  0  0  0  0  0  0
    1.6900    1.6709    0.0000 H   0  0  0  0  0  0  0  0  0  0  0  0
    1.4631    0.8240    0.0000 H   0  0  0  0  0  0  0  0  0  0  0  0
    2.5369   -0.9081    0.0000 H   0  0  0  0  0  0  0  0  0  0  0  0
    3.5970   -1.6760    0.0000 H   0  0  0  0  0  0  0  0  0  0  0  0
    6.4030   -1.6760    0.0000 H   0  0  0  0  0  0  0  0  0  0  0  0
  1 19  1  0  0  0  0 
  2  6  1  0  0  0  0 
  2 13  1  0  0  0  0 
  2 14  1  0  0  0  0 
  3  4  1  0  0  0  0 
  3  5  1  0  0  0  0 
  3  6  1  0  0  0  0 
  3  8  1  0  0  0  0 
  4  7  1  0  0  0  0 
  4 22  1  0  0  0  0 
  4 23  1  0  0  0  0 
  5  7  1  0  0  0  0 
  5 20  1  0  0  0  0 
  5 21  1  0  0  0  0 
  6  9  1  0  0  0  0 
  6 24  1  0  0  0  0 
  7 25  1  0  0  0  0 
  7 26  1  0  0  0  0 
  8 11  2  0  0  0  0 
  8 12  1  0  0  0  0 
  9 10  1  0  0  0  0 
  9 27  1  0  0  0  0 
  9 28  1  0  0  0  0 
 10 15  1  0  0  0  0 
 10 16  1  0  0  0  0 
 10 29  1  0  0  0  0 
 11 17  1  0  0  0  0 
 11 30  1  0  0  0  0 
 12 18  2  0  0  0  0 
 12 31  1  0  0  0  0 
 13 32  1  0  0  0  0 
 13 33  1  0  0  0  0 
 13 34  1  0  0  0  0 
 14 35  1  0  0  0  0 
 14 36  1  0  0  0  0 
 14 37  1  0  0  0  0 
 15 38  1  0  0  0  0 
 15 39  1  0  0  0  0 
 15 43  1  0  0  0  0 
 16 40  1  0  0  0  0 
 16 41  1  0  0  0  0 
 16 42  1  0  0  0  0 
 17 19  2  0  0  0  0 
 17 44  1  0  0  0  0 
 18 19  1  0  0  0  0 
 18 45  1  0  0  0  0 
M  END
> <cdk:Title>
5210

> <cdk:Remark>
null

> <PUBCHEM_COMPOUND_CID>
5210

> <PUBCHEM_COMPOUND_CANONICALIZED>
1

> <PUBCHEM_CACTVS_COMPLEXITY>
275

> <PUBCHEM_CACTVS_HBOND_ACCEPTOR>
1

> <PUBCHEM_CACTVS_HBOND_DONOR>
0

> <PUBCHEM_CACTVS_ROTATABLE_BOND>
5

> <PUBCHEM_CACTVS_SUBSKEYS>
AAADceB6AAAEAAAAAAAAAAAAAABgAAAAAAAwAAAAAAAAAAABAAAAHAIAAAAADyrBGCQyAIMAAACAAiBCAAACAAAgBQAIiAAIAogIICKBkxGEIAAggAAIiAcQgMAPhAAAAAAAAAAIAAAAAAAAAAAAAAAAAA==

> <PUBCHEM_IUPAC_OPENEYE_NAME>
1-[1-(4-chlorophenyl)cyclobutyl]-N,N,3-trimethyl-butan-1-amine

> <PUBCHEM_IUPAC_CAS_NAME>
1-[1-(4-chlorophenyl)cyclobutyl]-N,N,3-trimethyl-1-butanamine

> <PUBCHEM_IUPAC_NAME>
1-[1-(4-chlorophenyl)cyclobutyl]-N,N,3-trimethylbutan-1-amine

> <PUBCHEM_IUPAC_SYSTEMATIC_NAME>
1-[1-(4-chlorophenyl)cyclobutyl]-N,N,3-trimethyl-butan-1-amine

> <PUBCHEM_IUPAC_TRADITIONAL_NAME>
[1-[1-(4-chlorophenyl)cyclobutyl]-3-methyl-butyl]-dimethyl-amine

> <PUBCHEM_IUPAC_INCHI>
InChI=1S/C17H26ClN/c1-13(2)12-16(19(3)4)17(10-5-11-17)14-6-8-15(18)9-7-14/h6-9,13,16H,5,10-12H2,1-4H3

> <PUBCHEM_IUPAC_INCHIKEY>
UNAANXDKBXWMLN-UHFFFAOYSA-N

> <PUBCHEM_XLOGP3_AA>
5.4

> <PUBCHEM_EXACT_MASS>
279.175378

> <PUBCHEM_MOLECULAR_FORMULA>
C17H26ClN

> <PUBCHEM_MOLECULAR_WEIGHT>
279.84804

> <PUBCHEM_OPENEYE_CAN_SMILES>
CC(C)CC(C1(CCC1)C2=CC=C(C=C2)Cl)N(C)C

> <PUBCHEM_OPENEYE_ISO_SMILES>
CC(C)CC(C1(CCC1)C2=CC=C(C=C2)Cl)N(C)C

> <PUBCHEM_CACTVS_TPSA>
3.2

> <PUBCHEM_MONOISOTOPIC_WEIGHT>
279.175378

> <PUBCHEM_TOTAL_CHARGE>
0

> <PUBCHEM_HEAVY_ATOM_COUNT>
19

> <PUBCHEM_ATOM_DEF_STEREO_COUNT>
0

> <PUBCHEM_ATOM_UDEF_STEREO_COUNT>
1

> <PUBCHEM_BOND_DEF_STEREO_COUNT>
0

> <PUBCHEM_BOND_UDEF_STEREO_COUNT>
0

> <PUBCHEM_ISOTOPIC_ATOM_COUNT>
0

> <PUBCHEM_COMPONENT_COUNT>
1

> <PUBCHEM_CACTVS_TAUTO_COUNT>
1

> <PUBCHEM_COORDINATE_TYPE>
1
5
255

> <PUBCHEM_BONDANNOTATIONS>
11  17  8
12  18  8
17  19  8
18  19  8
6  9  3
8  11  8
8  12  8

> <DRUG_ID>
w139

> <DRUG_NAME>
Sibutramine

$$$$
441383
  CDK     0927151942
null
 67 71  0  0  0  0  0  0  0  0999 V2000
    3.4403   -1.6897    0.0000 Cl  0  0  0  0  0  0  0  0  0  0  0  0
    5.1724   -4.6897    0.0000 Cl  0  0  0  0  0  0  0  0  0  0  0  0
    6.1724   -0.6897    0.0000 O   0  0  0  0  0  0  0  0  0  0  0  0
    4.8633    0.2613    0.0000 O   0  0  0  0  0  0  0  0  0  0  0  0
    7.6403    1.5485    0.0000 O   0  0  0  0  0  0  0  0  0  0  0  0
   13.3467    3.4026    0.0000 N   0  0  0  0  0  0  0  0  0  0  0  0
   11.4446    2.7846    0.0000 N   0  0  0  0  0  0  0  0  0  0  0  0
    3.4782   -0.3296    0.0000 N   0  0  0  0  0  0  0  0  0  0  0  0
    3.5827    0.6649    0.0000 N   0  0  0  0  0  0  0  0  0  0  0  0
    2.0000    0.3285    0.0000 N   0  0  0  0  0  0  0  0  0  0  0  0
   12.6035    4.0717    0.0000 C   0  0  0  0  0  0  0  0  0  0  0  0
   13.1388    2.4244    0.0000 C   0  0  0  0  0  0  0  0  0  0  0  0
   12.1877    2.1154    0.0000 C   0  0  0  0  0  0  0  0  0  0  0  0
   11.6525    3.7627    0.0000 C   0  0  0  0  0  0  0  0  0  0  0  0
    5.1724   -0.6897    0.0000 C   0  0  1  0  0  0  0  0  0  0  0  0
   14.2977    3.7116    0.0000 C   0  0  0  0  0  0  0  0  0  0  0  0
    6.4814    0.2613    0.0000 C   0  0  2  0  0  0  0  0  0  0  0  0
    5.6724    0.8491    0.0000 C   0  0  0  0  0  0  0  0  0  0  0  0
    4.2213   -0.9988    0.0000 C   0  0  0  0  0  0  0  0  0  0  0  0
   10.4935    2.4755    0.0000 C   0  0  0  0  0  0  0  0  0  0  0  0
    5.1724   -1.6897    0.0000 C   0  0  0  0  0  0  0  0  0  0  0  0
    7.4324    0.5703    0.0000 C   0  0  0  0  0  0  0  0  0  0  0  0
   14.5056    4.6897    0.0000 C   0  0  0  0  0  0  0  0  0  0  0  0
   15.0409    3.0425    0.0000 C   0  0  0  0  0  0  0  0  0  0  0  0
    9.7504    3.1447    0.0000 C   0  0  0  0  0  0  0  0  0  0  0  0
   10.2856    1.4974    0.0000 C   0  0  0  0  0  0  0  0  0  0  0  0
    8.5914    1.8575    0.0000 C   0  0  0  0  0  0  0  0  0  0  0  0
    4.3063   -2.1897    0.0000 C   0  0  0  0  0  0  0  0  0  0  0  0
    6.0384   -2.1897    0.0000 C   0  0  0  0  0  0  0  0  0  0  0  0
    8.7993    2.8356    0.0000 C   0  0  0  0  0  0  0  0  0  0  0  0
    9.3345    1.1884    0.0000 C   0  0  0  0  0  0  0  0  0  0  0  0
    4.3063   -3.1897    0.0000 C   0  0  0  0  0  0  0  0  0  0  0  0
    6.0384   -3.1897    0.0000 C   0  0  0  0  0  0  0  0  0  0  0  0
    2.5000   -0.5375    0.0000 C   0  0  0  0  0  0  0  0  0  0  0  0
    5.1724   -3.6897    0.0000 C   0  0  0  0  0  0  0  0  0  0  0  0
    2.6691    1.0716    0.0000 C   0  0  0  0  0  0  0  0  0  0  0  0
   13.0921    4.4534    0.0000 H   0  0  0  0  0  0  0  0  0  0  0  0
   12.3125    4.6191    0.0000 H   0  0  0  0  0  0  0  0  0  0  0  0
   13.2250    1.8105    0.0000 H   0  0  0  0  0  0  0  0  0  0  0  0
   13.7584    2.4028    0.0000 H   0  0  0  0  0  0  0  0  0  0  0  0
   11.5662    4.3767    0.0000 H   0  0  0  0  0  0  0  0  0  0  0  0
   11.0328    3.7843    0.0000 H   0  0  0  0  0  0  0  0  0  0  0  0
   11.6991    1.7337    0.0000 H   0  0  0  0  0  0  0  0  0  0  0  0
   12.4788    1.5680    0.0000 H   0  0  0  0  0  0  0  0  0  0  0  0
   14.1688    3.1051    0.0000 H   0  0  0  0  0  0  0  0  0  0  0  0
    6.9198   -0.1771    0.0000 H   0  0  0  0  0  0  0  0  0  0  0  0
    6.0872    1.3098    0.0000 H   0  0  0  0  0  0  0  0  0  0  0  0
    5.2575    1.3098    0.0000 H   0  0  0  0  0  0  0  0  0  0  0  0
    3.7327   -1.3805    0.0000 H   0  0  0  0  0  0  0  0  0  0  0  0
    4.5124   -1.5462    0.0000 H   0  0  0  0  0  0  0  0  0  0  0  0
    7.5187   -0.0436    0.0000 H   0  0  0  0  0  0  0  0  0  0  0  0
    8.0520    0.5487    0.0000 H   0  0  0  0  0  0  0  0  0  0  0  0
   15.1121    4.5608    0.0000 H   0  0  0  0  0  0  0  0  0  0  0  0
   14.6345    5.2962    0.0000 H   0  0  0  0  0  0  0  0  0  0  0  0
   13.8992    4.8186    0.0000 H   0  0  0  0  0  0  0  0  0  0  0  0
   14.6260    2.5817    0.0000 H   0  0  0  0  0  0  0  0  0  0  0  0
   15.5016    2.6276    0.0000 H   0  0  0  0  0  0  0  0  0  0  0  0
   15.4557    3.5032    0.0000 H   0  0  0  0  0  0  0  0  0  0  0  0
    9.8793    3.7511    0.0000 H   0  0  0  0  0  0  0  0  0  0  0  0
   10.7463    1.0825    0.0000 H   0  0  0  0  0  0  0  0  0  0  0  0
    6.5753   -1.8797    0.0000 H   0  0  0  0  0  0  0  0  0  0  0  0
    8.3386    3.2505    0.0000 H   0  0  0  0  0  0  0  0  0  0  0  0
    9.2056    0.5819    0.0000 H   0  0  0  0  0  0  0  0  0  0  0  0
    3.7694   -3.4997    0.0000 H   0  0  0  0  0  0  0  0  0  0  0  0
    6.5753   -3.4997    0.0000 H   0  0  0  0  0  0  0  0  0  0  0  0
    2.2478   -1.1039    0.0000 H   0  0  0  0  0  0  0  0  0  0  0  0
    2.5402    1.6781    0.0000 H   0  0  0  0  0  0  0  0  0  0  0  0
  1 28  1  0  0  0  0 
  2 35  1  0  0  0  0 
  3 15  1  0  0  0  0 
  3 17  1  0  0  0  0 
  4 15  1  0  0  0  0 
  4 18  1  0  0  0  0 
  5 22  1  0  0  0  0 
  5 27  1  0  0  0  0 
  6 11  1  0  0  0  0 
  6 12  1  0  0  0  0 
  6 16  1  0  0  0  0 
  7 13  1  0  0  0  0 
  7 14  1  0  0  0  0 
  7 20  1  0  0  0  0 
  8  9  1  0  0  0  0 
  8 19  1  0  0  0  0 
  8 34  1  0  0  0  0 
  9 36  2  0  0  0  0 
 10 34  2  0  0  0  0 
 10 36  1  0  0  0  0 
 11 14  1  0  0  0  0 
 11 37  1  0  0  0  0 
 11 38  1  0  0  0  0 
 12 13  1  0  0  0  0 
 12 39  1  0  0  0  0 
 12 40  1  0  0  0  0 
 13 43  1  0  0  0  0 
 13 44  1  0  0  0  0 
 14 41  1  0  0  0  0 
 14 42  1  0  0  0  0 
 15 19  1  6  0  0  0 
 15 21  1  0  0  0  0 
 16 23  1  0  0  0  0 
 16 24  1  0  0  0  0 
 16 45  1  0  0  0  0 
 17 18  1  0  0  0  0 
 17 22  1  6  0  0  0 
 17 46  1  0  0  0  0 
 18 47  1  0  0  0  0 
 18 48  1  0  0  0  0 
 19 49  1  0  0  0  0 
 19 50  1  0  0  0  0 
 20 25  2  0  0  0  0 
 20 26  1  0  0  0  0 
 21 28  2  0  0  0  0 
 21 29  1  0  0  0  0 
 22 51  1  0  0  0  0 
 22 52  1  0  0  0  0 
 23 53  1  0  0  0  0 
 23 54  1  0  0  0  0 
 23 55  1  0  0  0  0 
 24 56  1  0  0  0  0 
 24 57  1  0  0  0  0 
 24 58  1  0  0  0  0 
 25 30  1  0  0  0  0 
 25 59  1  0  0  0  0 
 26 31  2  0  0  0  0 
 26 60  1  0  0  0  0 
 27 30  2  0  0  0  0 
 27 31  1  0  0  0  0 
 28 32  1  0  0  0  0 
 29 33  2  0  0  0  0 
 29 61  1  0  0  0  0 
 30 62  1  0  0  0  0 
 31 63  1  0  0  0  0 
 32 35  2  0  0  0  0 
 32 64  1  0  0  0  0 
 33 35  1  0  0  0  0 
 33 65  1  0  0  0  0 
 34 66  1  0  0  0  0 
 36 67  1  0  0  0  0 
M  END
> <cdk:Title>
441383

> <cdk:Remark>
null

> <PUBCHEM_COMPOUND_CID>
441383

> <PUBCHEM_COMPOUND_CANONICALIZED>
1

> <PUBCHEM_CACTVS_COMPLEXITY>
693

> <PUBCHEM_CACTVS_HBOND_ACCEPTOR>
7

> <PUBCHEM_CACTVS_HBOND_DONOR>
0

> <PUBCHEM_CACTVS_ROTATABLE_BOND>
8

> <PUBCHEM_CACTVS_SUBSKEYS>
AAADceB7sAAGAAAAAAAAAAAAAAAAAWJAAAA8YIAAAAAAAAAB0AAAHgIIAAAADD7hmCY33ocIFACiAiRDZACSCAsxp4AdyAAOboifbiLFu5u3OCjtwBPe6AewwKAOBEAAAACBAAAIgAAAAQIAAAAAAAAAAA==

> <PUBCHEM_IUPAC_OPENEYE_NAME>
1-[4-[[(2R,4S)-2-(2,4-dichlorophenyl)-2-(1,2,4-triazol-1-ylmethyl)-1,3-dioxolan-4-yl]methoxy]phenyl]-4-isopropyl-piperazine

> <PUBCHEM_IUPAC_CAS_NAME>
1-[4-[[(2R,4S)-2-(2,4-dichlorophenyl)-2-(1,2,4-triazol-1-ylmethyl)-1,3-dioxolan-4-yl]methoxy]phenyl]-4-propan-2-ylpiperazine

> <PUBCHEM_IUPAC_NAME>
1-[4-[[(2R,4S)-2-(2,4-dichlorophenyl)-2-(1,2,4-triazol-1-ylmethyl)-1,3-dioxolan-4-yl]methoxy]phenyl]-4-propan-2-ylpiperazine

> <PUBCHEM_IUPAC_SYSTEMATIC_NAME>
1-[4-[[(2R,4S)-2-(2,4-dichlorophenyl)-2-(1,2,4-triazol-1-ylmethyl)-1,3-dioxolan-4-yl]methoxy]phenyl]-4-propan-2-yl-piperazine

> <PUBCHEM_IUPAC_TRADITIONAL_NAME>
1-[4-[[(2R,4S)-2-(2,4-dichlorophenyl)-2-(1,2,4-triazol-1-ylmethyl)-1,3-dioxolan-4-yl]methoxy]phenyl]-4-isopropyl-piperazine

> <PUBCHEM_IUPAC_INCHI>
InChI=1S/C26H31Cl2N5O3/c1-19(2)31-9-11-32(12-10-31)21-4-6-22(7-5-21)34-14-23-15-35-26(36-23,16-33-18-29-17-30-33)24-8-3-20(27)13-25(24)28/h3-8,13,17-19,23H,9-12,14-16H2,1-2H3/t23-,26-/m0/s1

> <PUBCHEM_IUPAC_INCHIKEY>
BLSQLHNBWJLIBQ-OZXSUGGESA-N

> <PUBCHEM_XLOGP3>
4.8

> <PUBCHEM_EXACT_MASS>
531.180395

> <PUBCHEM_MOLECULAR_FORMULA>
C26H31Cl2N5O3

> <PUBCHEM_MOLECULAR_WEIGHT>
532.46204

> <PUBCHEM_OPENEYE_CAN_SMILES>
CC(C)N1CCN(CC1)C2=CC=C(C=C2)OCC3COC(O3)(CN4C=NC=N4)C5=C(C=C(C=C5)Cl)Cl

> <PUBCHEM_OPENEYE_ISO_SMILES>
CC(C)N1CCN(CC1)C2=CC=C(C=C2)OC[C@H]3CO[C@](O3)(CN4C=NC=N4)C5=C(C=C(C=C5)Cl)Cl

> <PUBCHEM_CACTVS_TPSA>
64.9

> <PUBCHEM_MONOISOTOPIC_WEIGHT>
531.180395

> <PUBCHEM_TOTAL_CHARGE>
0

> <PUBCHEM_HEAVY_ATOM_COUNT>
36

> <PUBCHEM_ATOM_DEF_STEREO_COUNT>
2

> <PUBCHEM_ATOM_UDEF_STEREO_COUNT>
0

> <PUBCHEM_BOND_DEF_STEREO_COUNT>
0

> <PUBCHEM_BOND_UDEF_STEREO_COUNT>
0

> <PUBCHEM_ISOTOPIC_ATOM_COUNT>
0

> <PUBCHEM_COMPONENT_COUNT>
1

> <PUBCHEM_CACTVS_TAUTO_COUNT>
1

> <PUBCHEM_COORDINATE_TYPE>
1
5
255

> <PUBCHEM_BONDANNOTATIONS>
10  34  8
10  36  8
15  19  6
17  22  6
20  25  8
20  26  8
21  28  8
21  29  8
25  30  8
26  31  8
27  30  8
27  31  8
28  32  8
29  33  8
32  35  8
33  35  8
8  34  8
8  9  8
9  36  8

> <DRUG_ID>
w14

> <DRUG_NAME>
Terconazole

$$$$
3086677
  CDK     0927151942
null
 65 69  0  0  0  0  0  0  0  0999 V2000
    8.6651    2.5242    0.0000 F   0  0  0  0  0  0  0  0  0  0  0  0
    3.4030   -0.5000    0.0000 F   0  0  0  0  0  0  0  0  0  0  0  0
    5.1350   -3.5000    0.0000 F   0  0  0  0  0  0  0  0  0  0  0  0
   12.4795    0.2585    0.0000 O   0  0  0  0  0  0  0  0  0  0  0  0
    5.1350    3.5000    0.0000 O   0  0  0  0  0  0  0  0  0  0  0  0
   15.0679   -2.2515    0.0000 O   0  0  0  0  0  0  0  0  0  0  0  0
    2.5369    2.0000    0.0000 O   0  0  0  0  0  0  0  0  0  0  0  0
    3.4030    3.5000    0.0000 O   0  0  0  0  0  0  0  0  0  0  0  0
    8.6651    0.4758    0.0000 N   0  0  0  0  0  0  0  0  0  0  0  0
   11.6077   -1.2382    0.0000 N   0  0  0  0  0  0  0  0  0  0  0  0
    6.8950    0.4653    0.0000 N   0  0  0  0  0  0  0  0  0  0  0  0
   14.2077   -0.7482    0.0000 N   0  0  0  0  0  0  0  0  0  0  0  0
    5.1350    0.5000    0.0000 N   0  0  0  0  0  0  0  0  0  0  0  0
   16.8038   -1.2582    0.0000 N   0  0  0  0  0  0  0  0  0  0  0  0
    9.7432   -0.7307    0.0000 C   0  0  1  0  0  0  0  0  0  0  0  0
   10.2465    0.1333    0.0000 C   0  0  2  0  0  0  0  0  0  0  0  0
   10.7436   -0.7349    0.0000 C   0  0  0  0  0  0  0  0  0  0  0  0
    8.7658   -0.5191    0.0000 C   0  0  0  0  0  0  0  0  0  0  0  0
    9.5802    0.8791    0.0000 C   0  0  0  0  0  0  0  0  0  0  0  0
    7.8010    0.9792    0.0000 C   0  0  0  0  0  0  0  0  0  0  0  0
   12.4756   -0.7415    0.0000 C   0  0  0  0  0  0  0  0  0  0  0  0
   13.3397   -1.2449    0.0000 C   0  0  2  0  0  0  0  0  0  0  0  0
    7.8010    2.0208    0.0000 C   0  0  0  0  0  0  0  0  0  0  0  0
    6.0010    1.0000    0.0000 C   0  0  0  0  0  0  0  0  0  0  0  0
    6.8950    2.5347    0.0000 C   0  0  0  0  0  0  0  0  0  0  0  0
   13.3359   -2.2449    0.0000 C   0  0  0  0  0  0  0  0  0  0  0  0
    6.0010    2.0000    0.0000 C   0  0  0  0  0  0  0  0  0  0  0  0
    5.1350    2.5000    0.0000 C   0  0  0  0  0  0  0  0  0  0  0  0
   15.0718   -1.2516    0.0000 C   0  0  0  0  0  0  0  0  0  0  0  0
    4.2690    1.0000    0.0000 C   0  0  0  0  0  0  0  0  0  0  0  0
    4.2690    2.0000    0.0000 C   0  0  0  0  0  0  0  0  0  0  0  0
    5.1350   -0.5000    0.0000 C   0  0  0  0  0  0  0  0  0  0  0  0
   15.9397   -0.7549    0.0000 C   0  0  2  0  0  0  0  0  0  0  0  0
    3.4030    2.5000    0.0000 C   0  0  0  0  0  0  0  0  0  0  0  0
    4.2690   -1.0000    0.0000 C   0  0  0  0  0  0  0  0  0  0  0  0
    6.0010   -1.0000    0.0000 C   0  0  0  0  0  0  0  0  0  0  0  0
   15.9436    0.2451    0.0000 C   0  0  0  0  0  0  0  0  0  0  0  0
    4.2690   -2.0000    0.0000 C   0  0  0  0  0  0  0  0  0  0  0  0
    6.0010   -2.0000    0.0000 C   0  0  0  0  0  0  0  0  0  0  0  0
    5.1350   -2.5000    0.0000 C   0  0  0  0  0  0  0  0  0  0  0  0
    9.6510   -1.5757    0.0000 H   0  0  0  0  0  0  0  0  0  0  0  0
   10.9360    0.6304    0.0000 H   0  0  0  0  0  0  0  0  0  0  0  0
   10.5808   -1.3331    0.0000 H   0  0  0  0  0  0  0  0  0  0  0  0
   10.0832    1.2416    0.0000 H   0  0  0  0  0  0  0  0  0  0  0  0
    9.2723    1.4172    0.0000 H   0  0  0  0  0  0  0  0  0  0  0  0
    8.1458   -0.5167    0.0000 H   0  0  0  0  0  0  0  0  0  0  0  0
    8.6986   -1.1354    0.0000 H   0  0  0  0  0  0  0  0  0  0  0  0
   11.6053   -1.8582    0.0000 H   0  0  0  0  0  0  0  0  0  0  0  0
   13.8755   -1.5569    0.0000 H   0  0  0  0  0  0  0  0  0  0  0  0
    6.8878    3.1546    0.0000 H   0  0  0  0  0  0  0  0  0  0  0  0
   12.7159   -2.2425    0.0000 H   0  0  0  0  0  0  0  0  0  0  0  0
   13.3335   -2.8649    0.0000 H   0  0  0  0  0  0  0  0  0  0  0  0
   13.9559   -2.2473    0.0000 H   0  0  0  0  0  0  0  0  0  0  0  0
   14.2101   -0.1282    0.0000 H   0  0  0  0  0  0  0  0  0  0  0  0
    3.7320    0.6900    0.0000 H   0  0  0  0  0  0  0  0  0  0  0  0
   16.4778   -0.4470    0.0000 H   0  0  0  0  0  0  0  0  0  0  0  0
    6.5380   -0.6900    0.0000 H   0  0  0  0  0  0  0  0  0  0  0  0
   16.5636    0.2427    0.0000 H   0  0  0  0  0  0  0  0  0  0  0  0
   15.9460    0.8651    0.0000 H   0  0  0  0  0  0  0  0  0  0  0  0
   15.3236    0.2475    0.0000 H   0  0  0  0  0  0  0  0  0  0  0  0
   17.3419   -0.9503    0.0000 H   0  0  0  0  0  0  0  0  0  0  0  0
   16.8014   -1.8782    0.0000 H   0  0  0  0  0  0  0  0  0  0  0  0
    3.7320   -2.3100    0.0000 H   0  0  0  0  0  0  0  0  0  0  0  0
    6.5380   -2.3100    0.0000 H   0  0  0  0  0  0  0  0  0  0  0  0
    2.0000    2.3100    0.0000 H   0  0  0  0  0  0  0  0  0  0  0  0
  1 23  1  0  0  0  0 
  2 35  1  0  0  0  0 
  3 40  1  0  0  0  0 
  4 21  2  0  0  0  0 
  5 28  2  0  0  0  0 
  6 29  2  0  0  0  0 
  7 34  1  0  0  0  0 
  7 65  1  0  0  0  0 
  8 34  2  0  0  0  0 
  9 18  1  0  0  0  0 
  9 19  1  0  0  0  0 
  9 20  1  0  0  0  0 
 10 17  1  0  0  0  0 
 10 21  1  0  0  0  0 
 10 48  1  0  0  0  0 
 11 20  1  0  0  0  0 
 11 24  2  0  0  0  0 
 22 12  1  1  0  0  0 
 12 29  1  0  0  0  0 
 12 54  1  0  0  0  0 
 13 24  1  0  0  0  0 
 13 30  1  0  0  0  0 
 13 32  1  0  0  0  0 
 33 14  1  6  0  0  0 
 14 61  1  0  0  0  0 
 14 62  1  0  0  0  0 
 15 16  1  0  0  0  0 
 15 17  1  0  0  0  0 
 15 18  1  0  0  0  0 
 15 41  1  6  0  0  0 
 16 17  1  0  0  0  0 
 16 19  1  0  0  0  0 
 16 42  1  6  0  0  0 
 17 43  1  0  0  0  0 
 18 46  1  0  0  0  0 
 18 47  1  0  0  0  0 
 19 44  1  0  0  0  0 
 19 45  1  0  0  0  0 
 20 23  2  0  0  0  0 
 21 22  1  0  0  0  0 
 22 26  1  0  0  0  0 
 22 49  1  0  0  0  0 
 23 25  1  0  0  0  0 
 24 27  1  0  0  0  0 
 25 27  2  0  0  0  0 
 25 50  1  0  0  0  0 
 26 51  1  0  0  0  0 
 26 52  1  0  0  0  0 
 26 53  1  0  0  0  0 
 27 28  1  0  0  0  0 
 28 31  1  0  0  0  0 
 29 33  1  0  0  0  0 
 30 31  2  0  0  0  0 
 30 55  1  0  0  0  0 
 31 34  1  0  0  0  0 
 32 35  2  0  0  0  0 
 32 36  1  0  0  0  0 
 33 37  1  0  0  0  0 
 33 56  1  0  0  0  0 
 35 38  1  0  0  0  0 
 36 39  2  0  0  0  0 
 36 57  1  0  0  0  0 
 37 58  1  0  0  0  0 
 37 59  1  0  0  0  0 
 37 60  1  0  0  0  0 
 38 40  2  0  0  0  0 
 38 63  1  0  0  0  0 
 39 40  1  0  0  0  0 
 39 64  1  0  0  0  0 
M  END
> <cdk:Title>
3086677

> <cdk:Remark>
null

> <PUBCHEM_COMPOUND_CID>
3086677

> <PUBCHEM_COMPOUND_CANONICALIZED>
1

> <PUBCHEM_CACTVS_COMPLEXITY>
1080

> <PUBCHEM_CACTVS_HBOND_ACCEPTOR>
12

> <PUBCHEM_CACTVS_HBOND_DONOR>
4

> <PUBCHEM_CACTVS_ROTATABLE_BOND>
7

> <PUBCHEM_CACTVS_SUBSKEYS>
AAADceB7uYAAAAAAAAAAAAAAGAAAAWAAAAA8WIEAAAAAAACBwAAAHwAQCAAADSzBmgwz+JPIEgCoAqf2fACCgCklAiAJmKGoZNiIZP7I3bGUYYhstgLI2eeY2SKOAAAAAAAAAAAAAAAAAAAAAAAAAAAAAA==

> <PUBCHEM_IUPAC_OPENEYE_NAME>
7-[(1S,5R)-6-[[(2S)-2-[[(2S)-2-aminopropanoyl]amino]propanoyl]amino]-3-azabicyclo[3.1.0]hexan-3-yl]-1-(2,4-difluorophenyl)-6-fluoro-4-oxo-1,8-naphthyridine-3-carboxylic acid

> <PUBCHEM_IUPAC_CAS_NAME>
7-[(1S,5R)-6-[[(2S)-2-[[(2S)-2-amino-1-oxopropyl]amino]-1-oxopropyl]amino]-3-azabicyclo[3.1.0]hexan-3-yl]-1-(2,4-difluorophenyl)-6-fluoro-4-oxo-1,8-naphthyridine-3-carboxylic acid

> <PUBCHEM_IUPAC_NAME>
7-[(1S,5R)-6-[[(2S)-2-[[(2S)-2-aminopropanoyl]amino]propanoyl]amino]-3-azabicyclo[3.1.0]hexan-3-yl]-1-(2,4-difluorophenyl)-6-fluoro-4-oxo-1,8-naphthyridine-3-carboxylic acid

> <PUBCHEM_IUPAC_SYSTEMATIC_NAME>
7-[(1S,5R)-6-[[(2S)-2-[[(2S)-2-azanylpropanoyl]amino]propanoyl]amino]-3-azabicyclo[3.1.0]hexan-3-yl]-1-[2,4-bis(fluoranyl)phenyl]-6-fluoranyl-4-oxidanylidene-1,8-naphthyridine-3-carboxylic acid

> <PUBCHEM_IUPAC_TRADITIONAL_NAME>
7-[(1S,5R)-6-[[(2S)-2-[[(2S)-2-aminopropanoyl]amino]propanoyl]amino]-3-azabicyclo[3.1.0]hexan-3-yl]-1-(2,4-difluorophenyl)-6-fluoro-4-keto-1,8-naphthyridine-3-carboxylic acid

> <PUBCHEM_IUPAC_INCHI>
InChI=1S/C26H25F3N6O5/c1-10(30)24(37)31-11(2)25(38)32-20-14-7-34(8-15(14)20)23-18(29)6-13-21(36)16(26(39)40)9-35(22(13)33-23)19-4-3-12(27)5-17(19)28/h3-6,9-11,14-15,20H,7-8,30H2,1-2H3,(H,31,37)(H,32,38)(H,39,40)/t10-,11-,14-,15+,20?/m0/s1

> <PUBCHEM_IUPAC_INCHIKEY>
UUZPPAMZDFLUHD-LZGARRQBSA-N

> <PUBCHEM_XLOGP3>
-0.2

> <PUBCHEM_EXACT_MASS>
558.183853

> <PUBCHEM_MOLECULAR_FORMULA>
C26H25F3N6O5

> <PUBCHEM_MOLECULAR_WEIGHT>
558.50911

> <PUBCHEM_OPENEYE_CAN_SMILES>
CC(C(=O)NC(C)C(=O)NC1C2C1CN(C2)C3=C(C=C4C(=O)C(=CN(C4=N3)C5=C(C=C(C=C5)F)F)C(=O)O)F)N

> <PUBCHEM_OPENEYE_ISO_SMILES>
C[C@@H](C(=O)N[C@@H](C)C(=O)NC1[C@H]2[C@@H]1CN(C2)C3=C(C=C4C(=O)C(=CN(C4=N3)C5=C(C=C(C=C5)F)F)C(=O)O)F)N

> <PUBCHEM_CACTVS_TPSA>
158

> <PUBCHEM_MONOISOTOPIC_WEIGHT>
558.183853

> <PUBCHEM_TOTAL_CHARGE>
0

> <PUBCHEM_HEAVY_ATOM_COUNT>
40

> <PUBCHEM_ATOM_DEF_STEREO_COUNT>
4

> <PUBCHEM_ATOM_UDEF_STEREO_COUNT>
0

> <PUBCHEM_BOND_DEF_STEREO_COUNT>
0

> <PUBCHEM_BOND_UDEF_STEREO_COUNT>
0

> <PUBCHEM_ISOTOPIC_ATOM_COUNT>
0

> <PUBCHEM_COMPONENT_COUNT>
1

> <PUBCHEM_CACTVS_TAUTO_COUNT>
4

> <PUBCHEM_COORDINATE_TYPE>
1
5
255

> <PUBCHEM_BONDANNOTATIONS>
11  20  8
11  24  8
22  12  5
13  24  8
13  30  8
33  14  6
15  41  6
16  42  6
20  23  8
23  25  8
24  27  8
25  27  8
27  28  8
28  31  8
30  31  8
32  35  8
32  36  8
35  38  8
36  39  8
38  40  8
39  40  8

> <DRUG_ID>
w140

> <DRUG_NAME>
Alatrofloxacin

$$$$
4474062
  CDK     0927151942
null
 26 27  0  0  0  0  0  0  0  0999 V2000
    2.8660   -1.0000    0.0000 S   0  0  3  0  0  0  0  0  0  0  0  0
    8.1282    1.0241    0.0000 F   0  0  0  0  0  0  0  0  0  0  0  0
    4.5981   -2.0000    0.0000 O   0  0  0  0  0  0  0  0  0  0  0  0
    2.8660   -2.0000    0.0000 O   0  0  0  0  0  0  0  0  0  0  0  0
    4.5981    1.0000    0.0000 N   0  0  0  0  0  0  0  0  0  0  0  0
    5.4641    0.5000    0.0000 C   0  0  0  0  0  0  0  0  0  0  0  0
    5.4641   -0.5000    0.0000 C   0  0  0  0  0  0  0  0  0  0  0  0
    3.7320   -0.5000    0.0000 C   0  0  0  0  0  0  0  0  0  0  0  0
    4.5981   -1.0000    0.0000 C   0  0  0  0  0  0  0  0  0  0  0  0
    3.7320    0.5000    0.0000 C   0  0  0  0  0  0  0  0  0  0  0  0
    6.3580    1.0347    0.0000 C   0  0  0  0  0  0  0  0  0  0  0  0
    6.3580   -1.0347    0.0000 C   0  0  0  0  0  0  0  0  0  0  0  0
    4.5981    2.0000    0.0000 C   0  0  0  0  0  0  0  0  0  0  0  0
    7.2641    0.5208    0.0000 C   0  0  0  0  0  0  0  0  0  0  0  0
    7.2641   -0.5208    0.0000 C   0  0  0  0  0  0  0  0  0  0  0  0
    2.0000   -0.5000    0.0000 C   0  0  0  0  0  0  0  0  0  0  0  0
    3.1951    0.8100    0.0000 H   0  0  0  0  0  0  0  0  0  0  0  0
    6.3509    1.6546    0.0000 H   0  0  0  0  0  0  0  0  0  0  0  0
    6.3509   -1.6546    0.0000 H   0  0  0  0  0  0  0  0  0  0  0  0
    5.2181    2.0000    0.0000 H   0  0  0  0  0  0  0  0  0  0  0  0
    4.5981    2.6200    0.0000 H   0  0  0  0  0  0  0  0  0  0  0  0
    3.9781    2.0000    0.0000 H   0  0  0  0  0  0  0  0  0  0  0  0
    7.7998   -0.8329    0.0000 H   0  0  0  0  0  0  0  0  0  0  0  0
    2.3100    0.0369    0.0000 H   0  0  0  0  0  0  0  0  0  0  0  0
    1.4631   -0.1900    0.0000 H   0  0  0  0  0  0  0  0  0  0  0  0
    1.6900   -1.0369    0.0000 H   0  0  0  0  0  0  0  0  0  0  0  0
  1  4  2  0  0  0  0 
  1  8  1  0  0  0  0 
  1 16  1  0  0  0  0 
  2 14  1  0  0  0  0 
  3  9  2  0  0  0  0 
  5  6  1  0  0  0  0 
  5 10  1  0  0  0  0 
  5 13  1  0  0  0  0 
  6  7  2  0  0  0  0 
  6 11  1  0  0  0  0 
  7  9  1  0  0  0  0 
  7 12  1  0  0  0  0 
  8  9  1  0  0  0  0 
  8 10  2  0  0  0  0 
 10 17  1  0  0  0  0 
 11 14  2  0  0  0  0 
 11 18  1  0  0  0  0 
 12 15  2  0  0  0  0 
 12 19  1  0  0  0  0 
 13 20  1  0  0  0  0 
 13 21  1  0  0  0  0 
 13 22  1  0  0  0  0 
 14 15  1  0  0  0  0 
 15 23  1  0  0  0  0 
 16 24  1  0  0  0  0 
 16 25  1  0  0  0  0 
 16 26  1  0  0  0  0 
M  END
> <cdk:Title>
4474062

> <cdk:Remark>
null

> <PUBCHEM_COMPOUND_CID>
4474062

> <PUBCHEM_COMPOUND_CANONICALIZED>
1

> <PUBCHEM_CACTVS_COMPLEXITY>
369

> <PUBCHEM_CACTVS_HBOND_ACCEPTOR>
5

> <PUBCHEM_CACTVS_HBOND_DONOR>
0

> <PUBCHEM_CACTVS_ROTATABLE_BOND>
1

> <PUBCHEM_CACTVS_SUBSKEYS>
AAADccByMQBAAAAAAAAAAAAAAAAAAAAAAAAwQAAAAAAAAACBAAAAHwQAAAAADAzB2AyywIMAAAqIAqRWQEDCAAAlAhAIiAEIZMgIIDrglZGEIYhggABIyccYiICOAAAAAAACAAAAAAAAAAQAAAAAAAAAAA==

> <PUBCHEM_IUPAC_OPENEYE_NAME>
7-fluoro-1-methyl-3-methylsulfinyl-quinolin-4-one

> <PUBCHEM_IUPAC_CAS_NAME>
7-fluoro-1-methyl-3-methylsulfinyl-4-quinolinone

> <PUBCHEM_IUPAC_NAME>
7-fluoro-1-methyl-3-methylsulfinylquinolin-4-one

> <PUBCHEM_IUPAC_SYSTEMATIC_NAME>
7-fluoranyl-1-methyl-3-methylsulfinyl-quinolin-4-one

> <PUBCHEM_IUPAC_TRADITIONAL_NAME>
7-fluoro-1-methyl-3-methylsulfinyl-4-quinolone

> <PUBCHEM_IUPAC_INCHI>
InChI=1S/C11H10FNO2S/c1-13-6-10(16(2)15)11(14)8-4-3-7(12)5-9(8)13/h3-6H,1-2H3

> <PUBCHEM_IUPAC_INCHIKEY>
UYGONJYYUKVHDD-UHFFFAOYSA-N

> <PUBCHEM_XLOGP3_AA>
1.1

> <PUBCHEM_EXACT_MASS>
239.041628

> <PUBCHEM_MOLECULAR_FORMULA>
C11H10FNO2S

> <PUBCHEM_MOLECULAR_WEIGHT>
239.266003

> <PUBCHEM_OPENEYE_CAN_SMILES>
CN1C=C(C(=O)C2=C1C=C(C=C2)F)S(=O)C

> <PUBCHEM_OPENEYE_ISO_SMILES>
CN1C=C(C(=O)C2=C1C=C(C=C2)F)S(=O)C

> <PUBCHEM_CACTVS_TPSA>
56.6

> <PUBCHEM_MONOISOTOPIC_WEIGHT>
239.041628

> <PUBCHEM_TOTAL_CHARGE>
0

> <PUBCHEM_HEAVY_ATOM_COUNT>
16

> <PUBCHEM_ATOM_DEF_STEREO_COUNT>
0

> <PUBCHEM_ATOM_UDEF_STEREO_COUNT>
1

> <PUBCHEM_BOND_DEF_STEREO_COUNT>
0

> <PUBCHEM_BOND_UDEF_STEREO_COUNT>
0

> <PUBCHEM_ISOTOPIC_ATOM_COUNT>
0

> <PUBCHEM_COMPONENT_COUNT>
1

> <PUBCHEM_CACTVS_TAUTO_COUNT>
1

> <PUBCHEM_COORDINATE_TYPE>
1
5
255

> <PUBCHEM_BONDANNOTATIONS>
1  16  3
11  14  8
12  15  8
14  15  8
5  10  8
5  6  8
6  11  8
6  7  8
7  12  8
7  9  8
8  10  8
8  9  8

> <DRUG_ID>
w141

> <DRUG_NAME>
Flosequinan

$$$$
5328
  CDK     0927151942
null
 27 28  0  0  0  0  0  0  0  0999 V2000
    3.0000    0.3470    0.0000 S   0  0  0  0  0  0  0  0  0  0  0  0
    3.9706    2.8415    0.0000 S   0  0  0  0  0  0  0  0  0  0  0  0
    4.0000    0.3470    0.0000 O   0  0  0  0  0  0  0  0  0  0  0  0
    2.0000    0.3470    0.0000 O   0  0  0  0  0  0  0  0  0  0  0  0
    3.0000    1.3470    0.0000 N   0  0  0  0  0  0  0  0  0  0  0  0
    4.7796    1.4403    0.0000 N   0  0  0  0  0  0  0  0  0  0  0  0
    3.0000   -3.6530    0.0000 N   0  0  0  0  0  0  0  0  0  0  0  0
    5.4487    2.1834    0.0000 N   0  0  0  0  0  0  0  0  0  0  0  0
    3.0000   -0.6530    0.0000 C   0  0  0  0  0  0  0  0  0  0  0  0
    2.1340   -1.1530    0.0000 C   0  0  0  0  0  0  0  0  0  0  0  0
    3.8660   -1.1530    0.0000 C   0  0  0  0  0  0  0  0  0  0  0  0
    3.0000   -2.6530    0.0000 C   0  0  0  0  0  0  0  0  0  0  0  0
    2.1340   -2.1530    0.0000 C   0  0  0  0  0  0  0  0  0  0  0  0
    3.8660   -2.1530    0.0000 C   0  0  0  0  0  0  0  0  0  0  0  0
    3.8660    1.8470    0.0000 C   0  0  0  0  0  0  0  0  0  0  0  0
    4.9487    3.0494    0.0000 C   0  0  0  0  0  0  0  0  0  0  0  0
    5.3554    3.9630    0.0000 C   0  0  0  0  0  0  0  0  0  0  0  0
    2.4631    1.6570    0.0000 H   0  0  0  0  0  0  0  0  0  0  0  0
    1.5970   -0.8430    0.0000 H   0  0  0  0  0  0  0  0  0  0  0  0
    4.4030   -0.8430    0.0000 H   0  0  0  0  0  0  0  0  0  0  0  0
    1.5970   -2.4630    0.0000 H   0  0  0  0  0  0  0  0  0  0  0  0
    4.4030   -2.4630    0.0000 H   0  0  0  0  0  0  0  0  0  0  0  0
    2.4631   -3.9630    0.0000 H   0  0  0  0  0  0  0  0  0  0  0  0
    3.5369   -3.9630    0.0000 H   0  0  0  0  0  0  0  0  0  0  0  0
    5.9218    3.7108    0.0000 H   0  0  0  0  0  0  0  0  0  0  0  0
    5.6076    4.5294    0.0000 H   0  0  0  0  0  0  0  0  0  0  0  0
    4.7890    4.2152    0.0000 H   0  0  0  0  0  0  0  0  0  0  0  0
  1  3  2  0  0  0  0 
  1  4  2  0  0  0  0 
  1  5  1  0  0  0  0 
  1  9  1  0  0  0  0 
  2 15  1  0  0  0  0 
  2 16  1  0  0  0  0 
  5 15  1  0  0  0  0 
  5 18  1  0  0  0  0 
  6  8  1  0  0  0  0 
  6 15  2  0  0  0  0 
  7 12  1  0  0  0  0 
  7 23  1  0  0  0  0 
  7 24  1  0  0  0  0 
  8 16  2  0  0  0  0 
  9 10  2  0  0  0  0 
  9 11  1  0  0  0  0 
 10 13  1  0  0  0  0 
 10 19  1  0  0  0  0 
 11 14  2  0  0  0  0 
 11 20  1  0  0  0  0 
 12 13  2  0  0  0  0 
 12 14  1  0  0  0  0 
 13 21  1  0  0  0  0 
 14 22  1  0  0  0  0 
 16 17  1  0  0  0  0 
 17 25  1  0  0  0  0 
 17 26  1  0  0  0  0 
 17 27  1  0  0  0  0 
M  END
> <cdk:Title>
5328

> <cdk:Remark>
null

> <PUBCHEM_COMPOUND_CID>
5328

> <PUBCHEM_COMPOUND_CANONICALIZED>
1

> <PUBCHEM_CACTVS_COMPLEXITY>
349

> <PUBCHEM_CACTVS_HBOND_ACCEPTOR>
7

> <PUBCHEM_CACTVS_HBOND_DONOR>
2

> <PUBCHEM_CACTVS_ROTATABLE_BOND>
3

> <PUBCHEM_CACTVS_SUBSKEYS>
AAADccBzsABgAAAAAAAAAAAAAAAAAWAAAAAwAAAAAAAAAAABwAAAHAQYQAAACAiBUgAz0YBAAAqmACRiYHDSAJJgAhEciBgQZIgIICKAkZGAIABwmAAIyAcQAAAAAAQAAAAAAAAACAAAAAAAAAAAAAAAAA==

> <PUBCHEM_IUPAC_OPENEYE_NAME>
4-amino-N-(5-methyl-1,3,4-thiadiazol-2-yl)benzenesulfonamide

> <PUBCHEM_IUPAC_CAS_NAME>
4-amino-N-(5-methyl-1,3,4-thiadiazol-2-yl)benzenesulfonamide

> <PUBCHEM_IUPAC_NAME>
4-amino-N-(5-methyl-1,3,4-thiadiazol-2-yl)benzenesulfonamide

> <PUBCHEM_IUPAC_SYSTEMATIC_NAME>
4-azanyl-N-(5-methyl-1,3,4-thiadiazol-2-yl)benzenesulfonamide

> <PUBCHEM_IUPAC_TRADITIONAL_NAME>
4-amino-N-(5-methyl-1,3,4-thiadiazol-2-yl)benzenesulfonamide

> <PUBCHEM_IUPAC_INCHI>
InChI=1S/C9H10N4O2S2/c1-6-11-12-9(16-6)13-17(14,15)8-4-2-7(10)3-5-8/h2-5H,10H2,1H3,(H,12,13)

> <PUBCHEM_IUPAC_INCHIKEY>
VACCAVUAMIDAGB-UHFFFAOYSA-N

> <PUBCHEM_XLOGP3>
0.5

> <PUBCHEM_EXACT_MASS>
270.024518

> <PUBCHEM_MOLECULAR_FORMULA>
C9H10N4O2S2

> <PUBCHEM_MOLECULAR_WEIGHT>
270.3313

> <PUBCHEM_OPENEYE_CAN_SMILES>
CC1=NN=C(S1)NS(=O)(=O)C2=CC=C(C=C2)N

> <PUBCHEM_OPENEYE_ISO_SMILES>
CC1=NN=C(S1)NS(=O)(=O)C2=CC=C(C=C2)N

> <PUBCHEM_CACTVS_TPSA>
135

> <PUBCHEM_MONOISOTOPIC_WEIGHT>
270.024518

> <PUBCHEM_TOTAL_CHARGE>
0

> <PUBCHEM_HEAVY_ATOM_COUNT>
17

> <PUBCHEM_ATOM_DEF_STEREO_COUNT>
0

> <PUBCHEM_ATOM_UDEF_STEREO_COUNT>
0

> <PUBCHEM_BOND_DEF_STEREO_COUNT>
0

> <PUBCHEM_BOND_UDEF_STEREO_COUNT>
0

> <PUBCHEM_ISOTOPIC_ATOM_COUNT>
0

> <PUBCHEM_COMPONENT_COUNT>
1

> <PUBCHEM_CACTVS_TAUTO_COUNT>
2

> <PUBCHEM_COORDINATE_TYPE>
1
5
255

> <PUBCHEM_BONDANNOTATIONS>
10  13  8
11  14  8
12  13  8
12  14  8
2  15  8
2  16  8
6  15  8
6  8  8
8  16  8
9  10  8
9  11  8

> <DRUG_ID>
w142

> <DRUG_NAME>
Sulfamethizole

$$$$
5330
  CDK     0927151942
null
 31 32  0  0  0  0  0  0  0  0999 V2000
    3.0000    0.1550    0.0000 S   0  0  0  0  0  0  0  0  0  0  0  0
    4.0000    0.1550    0.0000 O   0  0  0  0  0  0  0  0  0  0  0  0
    2.0000    0.1550    0.0000 O   0  0  0  0  0  0  0  0  0  0  0  0
    6.4641    3.1550    0.0000 O   0  0  0  0  0  0  0  0  0  0  0  0
    3.0000    1.1550    0.0000 N   0  0  0  0  0  0  0  0  0  0  0  0
    3.8660    2.6550    0.0000 N   0  0  0  0  0  0  0  0  0  0  0  0
    3.0000   -3.8450    0.0000 N   0  0  0  0  0  0  0  0  0  0  0  0
    4.7320    3.1550    0.0000 N   0  0  0  0  0  0  0  0  0  0  0  0
    3.0000   -0.8450    0.0000 C   0  0  0  0  0  0  0  0  0  0  0  0
    2.1340   -1.3450    0.0000 C   0  0  0  0  0  0  0  0  0  0  0  0
    3.8660   -1.3450    0.0000 C   0  0  0  0  0  0  0  0  0  0  0  0
    3.0000   -2.8450    0.0000 C   0  0  0  0  0  0  0  0  0  0  0  0
    2.1340   -2.3450    0.0000 C   0  0  0  0  0  0  0  0  0  0  0  0
    3.8660   -2.3450    0.0000 C   0  0  0  0  0  0  0  0  0  0  0  0
    3.8660    1.6550    0.0000 C   0  0  0  0  0  0  0  0  0  0  0  0
    4.7320    1.1550    0.0000 C   0  0  0  0  0  0  0  0  0  0  0  0
    5.5981    1.6550    0.0000 C   0  0  0  0  0  0  0  0  0  0  0  0
    5.5981    2.6550    0.0000 C   0  0  0  0  0  0  0  0  0  0  0  0
    6.4641    4.1550    0.0000 C   0  0  0  0  0  0  0  0  0  0  0  0
    2.4631    1.4650    0.0000 H   0  0  0  0  0  0  0  0  0  0  0  0
    1.5970   -1.0350    0.0000 H   0  0  0  0  0  0  0  0  0  0  0  0
    4.4030   -1.0350    0.0000 H   0  0  0  0  0  0  0  0  0  0  0  0
    1.5970   -2.6550    0.0000 H   0  0  0  0  0  0  0  0  0  0  0  0
    4.4030   -2.6550    0.0000 H   0  0  0  0  0  0  0  0  0  0  0  0
    4.7320    0.5350    0.0000 H   0  0  0  0  0  0  0  0  0  0  0  0
    6.1350    1.3450    0.0000 H   0  0  0  0  0  0  0  0  0  0  0  0
    2.4631   -4.1550    0.0000 H   0  0  0  0  0  0  0  0  0  0  0  0
    3.5369   -4.1550    0.0000 H   0  0  0  0  0  0  0  0  0  0  0  0
    7.0841    4.1550    0.0000 H   0  0  0  0  0  0  0  0  0  0  0  0
    6.4641    4.7750    0.0000 H   0  0  0  0  0  0  0  0  0  0  0  0
    5.8441    4.1550    0.0000 H   0  0  0  0  0  0  0  0  0  0  0  0
  1  2  2  0  0  0  0 
  1  3  2  0  0  0  0 
  1  5  1  0  0  0  0 
  1  9  1  0  0  0  0 
  4 18  1  0  0  0  0 
  4 19  1  0  0  0  0 
  5 15  1  0  0  0  0 
  5 20  1  0  0  0  0 
  6  8  1  0  0  0  0 
  6 15  2  0  0  0  0 
  7 12  1  0  0  0  0 
  7 27  1  0  0  0  0 
  7 28  1  0  0  0  0 
  8 18  2  0  0  0  0 
  9 10  2  0  0  0  0 
  9 11  1  0  0  0  0 
 10 13  1  0  0  0  0 
 10 21  1  0  0  0  0 
 11 14  2  0  0  0  0 
 11 22  1  0  0  0  0 
 12 13  2  0  0  0  0 
 12 14  1  0  0  0  0 
 13 23  1  0  0  0  0 
 14 24  1  0  0  0  0 
 15 16  1  0  0  0  0 
 16 17  2  0  0  0  0 
 16 25  1  0  0  0  0 
 17 18  1  0  0  0  0 
 17 26  1  0  0  0  0 
 19 29  1  0  0  0  0 
 19 30  1  0  0  0  0 
 19 31  1  0  0  0  0 
M  END
> <cdk:Title>
5330

> <cdk:Remark>
null

> <PUBCHEM_COMPOUND_CID>
5330

> <PUBCHEM_COMPOUND_CANONICALIZED>
1

> <PUBCHEM_CACTVS_COMPLEXITY>
376

> <PUBCHEM_CACTVS_HBOND_ACCEPTOR>
7

> <PUBCHEM_CACTVS_HBOND_DONOR>
2

> <PUBCHEM_CACTVS_ROTATABLE_BOND>
4

> <PUBCHEM_CACTVS_SUBSKEYS>
AAADccBzsABAAAAAAAAAAAAAAAAAAAAAAAA8QAAAAAAAAAABwAAAHgQYQAAACAiB0gIz9ZBABAKiACZiYHDSDBIgIgAcmDg2bJgMJqKEsZuAsCB02BEI6AcwAAAAAAQAAAAAAAAACAAAAAAAAAAAAAAAAA==

> <PUBCHEM_IUPAC_OPENEYE_NAME>
4-amino-N-(6-methoxypyridazin-3-yl)benzenesulfonamide

> <PUBCHEM_IUPAC_CAS_NAME>
4-amino-N-(6-methoxy-3-pyridazinyl)benzenesulfonamide

> <PUBCHEM_IUPAC_NAME>
4-amino-N-(6-methoxypyridazin-3-yl)benzenesulfonamide

> <PUBCHEM_IUPAC_SYSTEMATIC_NAME>
4-azanyl-N-(6-methoxypyridazin-3-yl)benzenesulfonamide

> <PUBCHEM_IUPAC_TRADITIONAL_NAME>
4-amino-N-(6-methoxypyridazin-3-yl)benzenesulfonamide

> <PUBCHEM_IUPAC_INCHI>
InChI=1S/C11H12N4O3S/c1-18-11-7-6-10(13-14-11)15-19(16,17)9-4-2-8(12)3-5-9/h2-7H,12H2,1H3,(H,13,15)

> <PUBCHEM_IUPAC_INCHIKEY>
VLYWMPOKSSWJAL-UHFFFAOYSA-N

> <PUBCHEM_XLOGP3>
0.3

> <PUBCHEM_EXACT_MASS>
280.063011

> <PUBCHEM_MOLECULAR_FORMULA>
C11H12N4O3S

> <PUBCHEM_MOLECULAR_WEIGHT>
280.30298

> <PUBCHEM_OPENEYE_CAN_SMILES>
COC1=NN=C(C=C1)NS(=O)(=O)C2=CC=C(C=C2)N

> <PUBCHEM_OPENEYE_ISO_SMILES>
COC1=NN=C(C=C1)NS(=O)(=O)C2=CC=C(C=C2)N

> <PUBCHEM_CACTVS_TPSA>
116

> <PUBCHEM_MONOISOTOPIC_WEIGHT>
280.063011

> <PUBCHEM_TOTAL_CHARGE>
0

> <PUBCHEM_HEAVY_ATOM_COUNT>
19

> <PUBCHEM_ATOM_DEF_STEREO_COUNT>
0

> <PUBCHEM_ATOM_UDEF_STEREO_COUNT>
0

> <PUBCHEM_BOND_DEF_STEREO_COUNT>
0

> <PUBCHEM_BOND_UDEF_STEREO_COUNT>
0

> <PUBCHEM_ISOTOPIC_ATOM_COUNT>
0

> <PUBCHEM_COMPONENT_COUNT>
1

> <PUBCHEM_CACTVS_TAUTO_COUNT>
6

> <PUBCHEM_COORDINATE_TYPE>
1
5
255

> <PUBCHEM_BONDANNOTATIONS>
10  13  8
11  14  8
12  13  8
12  14  8
15  16  8
16  17  8
17  18  8
6  15  8
6  8  8
8  18  8
9  10  8
9  11  8

> <DRUG_ID>
w143

> <DRUG_NAME>
Sulfamethoxypyridazine

$$$$
17336
  CDK     0927151942
null
 30 30  0  0  0  0  0  0  0  0999 V2000
    4.5000    2.5306    0.0000 O   0  0  0  0  0  0  0  0  0  0  0  0
    5.7320   -0.0675    0.0000 O   0  0  0  0  0  0  0  0  0  0  0  0
    2.2680   -0.0675    0.0000 O   0  0  0  0  0  0  0  0  0  0  0  0
    4.0000   -3.0675    0.0000 O   0  0  0  0  0  0  0  0  0  0  0  0
    4.8660   -1.5675    0.0000 N   0  0  0  0  0  0  0  0  0  0  0  0
    3.1340   -1.5675    0.0000 N   0  0  0  0  0  0  0  0  0  0  0  0
    4.0000   -0.0675    0.0000 C   0  0  0  0  0  0  0  0  0  0  0  0
    4.5000    0.7985    0.0000 C   0  0  0  0  0  0  0  0  0  0  0  0
    3.5000    0.7985    0.0000 C   0  0  0  0  0  0  0  0  0  0  0  0
    4.0000    1.6645    0.0000 C   0  0  3  0  0  0  0  0  0  0  0  0
    4.8660   -0.5675    0.0000 C   0  0  0  0  0  0  0  0  0  0  0  0
    3.1340   -0.5675    0.0000 C   0  0  0  0  0  0  0  0  0  0  0  0
    3.0000    1.6645    0.0000 C   0  0  0  0  0  0  0  0  0  0  0  0
    2.5000    0.7985    0.0000 C   0  0  0  0  0  0  0  0  0  0  0  0
    4.0000   -2.0675    0.0000 C   0  0  0  0  0  0  0  0  0  0  0  0
    2.0000    1.6645    0.0000 C   0  0  0  0  0  0  0  0  0  0  0  0
    4.9750    0.4000    0.0000 H   0  0  0  0  0  0  0  0  0  0  0  0
    4.9750    1.1970    0.0000 H   0  0  0  0  0  0  0  0  0  0  0  0
    4.0826    1.0106    0.0000 H   0  0  0  0  0  0  0  0  0  0  0  0
    3.3923    1.4091    0.0000 H   0  0  0  0  0  0  0  0  0  0  0  0
    4.6200    1.6645    0.0000 H   0  0  0  0  0  0  0  0  0  0  0  0
    5.4030   -1.8775    0.0000 H   0  0  0  0  0  0  0  0  0  0  0  0
    2.5970   -1.8775    0.0000 H   0  0  0  0  0  0  0  0  0  0  0  0
    3.0000    2.2845    0.0000 H   0  0  0  0  0  0  0  0  0  0  0  0
    2.3800    1.6645    0.0000 H   0  0  0  0  0  0  0  0  0  0  0  0
    3.0000    1.0445    0.0000 H   0  0  0  0  0  0  0  0  0  0  0  0
    2.1900    0.2616    0.0000 H   0  0  0  0  0  0  0  0  0  0  0  0
    4.1900    3.0675    0.0000 H   0  0  0  0  0  0  0  0  0  0  0  0
    2.3100    2.2015    0.0000 H   0  0  0  0  0  0  0  0  0  0  0  0
    1.3800    1.6645    0.0000 H   0  0  0  0  0  0  0  0  0  0  0  0
  1 10  1  0  0  0  0 
  1 28  1  0  0  0  0 
  2 11  2  0  0  0  0 
  3 12  2  0  0  0  0 
  4 15  2  0  0  0  0 
  5 11  1  0  0  0  0 
  5 15  1  0  0  0  0 
  5 22  1  0  0  0  0 
  6 12  1  0  0  0  0 
  6 15  1  0  0  0  0 
  6 23  1  0  0  0  0 
  7  8  1  0  0  0  0 
  7  9  1  0  0  0  0 
  7 11  1  0  0  0  0 
  7 12  1  0  0  0  0 
  8 10  1  0  0  0  0 
  8 17  1  0  0  0  0 
  8 18  1  0  0  0  0 
  9 14  1  0  0  0  0 
  9 19  1  0  0  0  0 
  9 20  1  0  0  0  0 
 10 13  1  0  0  0  0 
 10 21  1  0  0  0  0 
 13 24  1  0  0  0  0 
 13 25  1  0  0  0  0 
 13 26  1  0  0  0  0 
 14 16  2  0  0  0  0 
 14 27  1  0  0  0  0 
 16 29  1  0  0  0  0 
 16 30  1  0  0  0  0 
M  END
> <cdk:Title>
17336

> <cdk:Remark>
null

> <PUBCHEM_COMPOUND_CID>
17336

> <PUBCHEM_COMPOUND_CANONICALIZED>
1

> <PUBCHEM_CACTVS_COMPLEXITY>
331

> <PUBCHEM_CACTVS_HBOND_ACCEPTOR>
4

> <PUBCHEM_CACTVS_HBOND_DONOR>
3

> <PUBCHEM_CACTVS_ROTATABLE_BOND>
4

> <PUBCHEM_CACTVS_SUBSKEYS>
AAADccBzOAAAAAAAAAAAAAAAAAAAAAAAAAAsAAAAAAAAAAAAAAAAHgAQCAAADhShgAIDAALAAgCIACFSEAAAAAAgAAAIAAEAAAiAEBoIwQAEQAAMhSIAAAG6AAAPAAAAAAAAAAAAAAAAAAAAAAAAAAAAAA==

> <PUBCHEM_IUPAC_OPENEYE_NAME>
5-allyl-5-(2-hydroxypropyl)hexahydropyrimidine-2,4,6-trione

> <PUBCHEM_IUPAC_CAS_NAME>
5-(2-hydroxypropyl)-5-prop-2-enyl-1,3-diazinane-2,4,6-trione

> <PUBCHEM_IUPAC_NAME>
5-(2-hydroxypropyl)-5-prop-2-enyl-1,3-diazinane-2,4,6-trione

> <PUBCHEM_IUPAC_SYSTEMATIC_NAME>
5-(2-oxidanylpropyl)-5-prop-2-enyl-1,3-diazinane-2,4,6-trione

> <PUBCHEM_IUPAC_TRADITIONAL_NAME>
5-allyl-5-(2-hydroxypropyl)barbituric acid

> <PUBCHEM_IUPAC_INCHI>
InChI=1S/C10H14N2O4/c1-3-4-10(5-6(2)13)7(14)11-9(16)12-8(10)15/h3,6,13H,1,4-5H2,2H3,(H2,11,12,14,15,16)

> <PUBCHEM_IUPAC_INCHIKEY>
VNLMRPAWAMPLNZ-UHFFFAOYSA-N

> <PUBCHEM_XLOGP3>
0.2

> <PUBCHEM_EXACT_MASS>
226.095357

> <PUBCHEM_MOLECULAR_FORMULA>
C10H14N2O4

> <PUBCHEM_MOLECULAR_WEIGHT>
226.22916

> <PUBCHEM_OPENEYE_CAN_SMILES>
CC(CC1(C(=O)NC(=O)NC1=O)CC=C)O

> <PUBCHEM_OPENEYE_ISO_SMILES>
CC(CC1(C(=O)NC(=O)NC1=O)CC=C)O

> <PUBCHEM_CACTVS_TPSA>
95.5

> <PUBCHEM_MONOISOTOPIC_WEIGHT>
226.095357

> <PUBCHEM_TOTAL_CHARGE>
0

> <PUBCHEM_HEAVY_ATOM_COUNT>
16

> <PUBCHEM_ATOM_DEF_STEREO_COUNT>
0

> <PUBCHEM_ATOM_UDEF_STEREO_COUNT>
1

> <PUBCHEM_BOND_DEF_STEREO_COUNT>
0

> <PUBCHEM_BOND_UDEF_STEREO_COUNT>
0

> <PUBCHEM_ISOTOPIC_ATOM_COUNT>
0

> <PUBCHEM_COMPONENT_COUNT>
1

> <PUBCHEM_CACTVS_TAUTO_COUNT>
5

> <PUBCHEM_COORDINATE_TYPE>
1
5
255

> <PUBCHEM_BONDANNOTATIONS>
10  1  3

> <DRUG_ID>
w144

> <DRUG_NAME>
Proxibarbal

$$$$
4449
  CDK     0927151942
null
 65 68  0  0  0  0  0  0  0  0999 V2000
    2.0000   -6.1283    0.0000 Cl  0  0  0  0  0  0  0  0  0  0  0  0
    4.8255    3.5353    0.0000 O   0  0  0  0  0  0  0  0  0  0  0  0
    8.3548    5.0057    0.0000 O   0  0  0  0  0  0  0  0  0  0  0  0
    3.7320   -1.1283    0.0000 N   0  0  0  0  0  0  0  0  0  0  0  0
    3.7320   -3.1283    0.0000 N   0  0  0  0  0  0  0  0  0  0  0  0
    5.4641    1.8717    0.0000 N   0  0  0  0  0  0  0  0  0  0  0  0
    6.5468    3.0741    0.0000 N   0  0  0  0  0  0  0  0  0  0  0  0
    6.3776    1.4649    0.0000 N   0  0  0  0  0  0  0  0  0  0  0  0
    4.5981   -1.6283    0.0000 C   0  0  0  0  0  0  0  0  0  0  0  0
    2.8660   -1.6283    0.0000 C   0  0  0  0  0  0  0  0  0  0  0  0
    4.5981   -2.6283    0.0000 C   0  0  0  0  0  0  0  0  0  0  0  0
    2.8660   -2.6283    0.0000 C   0  0  0  0  0  0  0  0  0  0  0  0
    3.7320   -0.1283    0.0000 C   0  0  0  0  0  0  0  0  0  0  0  0
    4.5981    0.3717    0.0000 C   0  0  0  0  0  0  0  0  0  0  0  0
    4.5981    1.3717    0.0000 C   0  0  0  0  0  0  0  0  0  0  0  0
    3.7320   -4.1283    0.0000 C   0  0  0  0  0  0  0  0  0  0  0  0
    5.5686    2.8662    0.0000 C   0  0  0  0  0  0  0  0  0  0  0  0
    7.0468    2.2081    0.0000 C   0  0  0  0  0  0  0  0  0  0  0  0
    2.8660   -4.6283    0.0000 C   0  0  0  0  0  0  0  0  0  0  0  0
    4.5981   -4.6283    0.0000 C   0  0  0  0  0  0  0  0  0  0  0  0
    6.9535    3.9876    0.0000 C   0  0  0  0  0  0  0  0  0  0  0  0
    8.0413    2.1035    0.0000 C   0  0  0  0  0  0  0  0  0  0  0  0
    2.8660   -5.6283    0.0000 C   0  0  0  0  0  0  0  0  0  0  0  0
    4.5981   -5.6283    0.0000 C   0  0  0  0  0  0  0  0  0  0  0  0
    7.9480    4.0922    0.0000 C   0  0  0  0  0  0  0  0  0  0  0  0
    3.7320   -6.1283    0.0000 C   0  0  0  0  0  0  0  0  0  0  0  0
    8.4480    1.1900    0.0000 C   0  0  0  0  0  0  0  0  0  0  0  0
    9.3493    5.1102    0.0000 C   0  0  0  0  0  0  0  0  0  0  0  0
    9.9371    4.3012    0.0000 C   0  0  0  0  0  0  0  0  0  0  0  0
    9.7560    6.0238    0.0000 C   0  0  0  0  0  0  0  0  0  0  0  0
   10.9316    4.4058    0.0000 C   0  0  0  0  0  0  0  0  0  0  0  0
   10.7506    6.1283    0.0000 C   0  0  0  0  0  0  0  0  0  0  0  0
   11.3383    5.3193    0.0000 C   0  0  0  0  0  0  0  0  0  0  0  0
    2.6540   -1.0457    0.0000 H   0  0  0  0  0  0  0  0  0  0  0  0
    2.2554   -1.7360    0.0000 H   0  0  0  0  0  0  0  0  0  0  0  0
    5.2087   -1.7360    0.0000 H   0  0  0  0  0  0  0  0  0  0  0  0
    4.8101   -1.0457    0.0000 H   0  0  0  0  0  0  0  0  0  0  0  0
    2.2554   -2.5207    0.0000 H   0  0  0  0  0  0  0  0  0  0  0  0
    2.6540   -3.2109    0.0000 H   0  0  0  0  0  0  0  0  0  0  0  0
    4.8101   -3.2109    0.0000 H   0  0  0  0  0  0  0  0  0  0  0  0
    5.2087   -2.5207    0.0000 H   0  0  0  0  0  0  0  0  0  0  0  0
    3.5200    0.4543    0.0000 H   0  0  0  0  0  0  0  0  0  0  0  0
    3.1215   -0.2360    0.0000 H   0  0  0  0  0  0  0  0  0  0  0  0
    4.8101   -0.2109    0.0000 H   0  0  0  0  0  0  0  0  0  0  0  0
    5.2087    0.4793    0.0000 H   0  0  0  0  0  0  0  0  0  0  0  0
    4.3860    1.9543    0.0000 H   0  0  0  0  0  0  0  0  0  0  0  0
    3.9875    1.2640    0.0000 H   0  0  0  0  0  0  0  0  0  0  0  0
    2.3291   -4.3183    0.0000 H   0  0  0  0  0  0  0  0  0  0  0  0
    5.1350   -4.3183    0.0000 H   0  0  0  0  0  0  0  0  0  0  0  0
    6.9968    4.6061    0.0000 H   0  0  0  0  0  0  0  0  0  0  0  0
    6.3519    4.1376    0.0000 H   0  0  0  0  0  0  0  0  0  0  0  0
    8.6429    2.2535    0.0000 H   0  0  0  0  0  0  0  0  0  0  0  0
    7.9980    2.7220    0.0000 H   0  0  0  0  0  0  0  0  0  0  0  0
    5.1350   -5.9383    0.0000 H   0  0  0  0  0  0  0  0  0  0  0  0
    7.9048    3.4737    0.0000 H   0  0  0  0  0  0  0  0  0  0  0  0
    8.5496    3.9422    0.0000 H   0  0  0  0  0  0  0  0  0  0  0  0
    3.7320   -6.7483    0.0000 H   0  0  0  0  0  0  0  0  0  0  0  0
    7.8816    0.9378    0.0000 H   0  0  0  0  0  0  0  0  0  0  0  0
    8.7002    0.6236    0.0000 H   0  0  0  0  0  0  0  0  0  0  0  0
    9.0144    1.4422    0.0000 H   0  0  0  0  0  0  0  0  0  0  0  0
    9.6849    3.7348    0.0000 H   0  0  0  0  0  0  0  0  0  0  0  0
    9.3916    6.5254    0.0000 H   0  0  0  0  0  0  0  0  0  0  0  0
   11.2960    3.9042    0.0000 H   0  0  0  0  0  0  0  0  0  0  0  0
   11.0027    6.6947    0.0000 H   0  0  0  0  0  0  0  0  0  0  0  0
   11.9549    5.3841    0.0000 H   0  0  0  0  0  0  0  0  0  0  0  0
  1 23  1  0  0  0  0 
  2 17  2  0  0  0  0 
  3 25  1  0  0  0  0 
  3 28  1  0  0  0  0 
  4  9  1  0  0  0  0 
  4 10  1  0  0  0  0 
  4 13  1  0  0  0  0 
  5 11  1  0  0  0  0 
  5 12  1  0  0  0  0 
  5 16  1  0  0  0  0 
  6  8  1  0  0  0  0 
  6 15  1  0  0  0  0 
  6 17  1  0  0  0  0 
  7 17  1  0  0  0  0 
  7 18  1  0  0  0  0 
  7 21  1  0  0  0  0 
  8 18  2  0  0  0  0 
  9 11  1  0  0  0  0 
  9 36  1  0  0  0  0 
  9 37  1  0  0  0  0 
 10 12  1  0  0  0  0 
 10 34  1  0  0  0  0 
 10 35  1  0  0  0  0 
 11 40  1  0  0  0  0 
 11 41  1  0  0  0  0 
 12 38  1  0  0  0  0 
 12 39  1  0  0  0  0 
 13 14  1  0  0  0  0 
 13 42  1  0  0  0  0 
 13 43  1  0  0  0  0 
 14 15  1  0  0  0  0 
 14 44  1  0  0  0  0 
 14 45  1  0  0  0  0 
 15 46  1  0  0  0  0 
 15 47  1  0  0  0  0 
 16 19  2  0  0  0  0 
 16 20  1  0  0  0  0 
 18 22  1  0  0  0  0 
 19 23  1  0  0  0  0 
 19 48  1  0  0  0  0 
 20 24  2  0  0  0  0 
 20 49  1  0  0  0  0 
 21 25  1  0  0  0  0 
 21 50  1  0  0  0  0 
 21 51  1  0  0  0  0 
 22 27  1  0  0  0  0 
 22 52  1  0  0  0  0 
 22 53  1  0  0  0  0 
 23 26  2  0  0  0  0 
 24 26  1  0  0  0  0 
 24 54  1  0  0  0  0 
 25 55  1  0  0  0  0 
 25 56  1  0  0  0  0 
 26 57  1  0  0  0  0 
 27 58  1  0  0  0  0 
 27 59  1  0  0  0  0 
 27 60  1  0  0  0  0 
 28 29  2  0  0  0  0 
 28 30  1  0  0  0  0 
 29 31  1  0  0  0  0 
 29 61  1  0  0  0  0 
 30 32  2  0  0  0  0 
 30 62  1  0  0  0  0 
 31 33  2  0  0  0  0 
 31 63  1  0  0  0  0 
 32 33  1  0  0  0  0 
 32 64  1  0  0  0  0 
 33 65  1  0  0  0  0 
M  END
> <cdk:Title>
4449

> <cdk:Remark>
null

> <PUBCHEM_COMPOUND_CID>
4449

> <PUBCHEM_COMPOUND_CANONICALIZED>
1

> <PUBCHEM_CACTVS_COMPLEXITY>
649

> <PUBCHEM_CACTVS_HBOND_ACCEPTOR>
5

> <PUBCHEM_CACTVS_HBOND_DONOR>
0

> <PUBCHEM_CACTVS_ROTATABLE_BOND>
10

> <PUBCHEM_CACTVS_SUBSKEYS>
AAADcfB7sAAEAAAAAAAAAAAAAAAAAQAAAAA8YIAAAAAAAAABQAAAHgIIAAAACA7hkCYzxoMABACoACZicACSCAAhJwAfiAA+boiOZiLF+5uXOCjszhPY6AeQQAAAAAAAAAIAAAAAAAAABAAAAAAAAAAAAA==

> <PUBCHEM_IUPAC_OPENEYE_NAME>
2-[3-[4-(3-chlorophenyl)piperazin-1-yl]propyl]-5-ethyl-4-(2-phenoxyethyl)-1,2,4-triazol-3-one

> <PUBCHEM_IUPAC_CAS_NAME>
2-[3-[4-(3-chlorophenyl)-1-piperazinyl]propyl]-5-ethyl-4-(2-phenoxyethyl)-1,2,4-triazol-3-one

> <PUBCHEM_IUPAC_NAME>
2-[3-[4-(3-chlorophenyl)piperazin-1-yl]propyl]-5-ethyl-4-(2-phenoxyethyl)-1,2,4-triazol-3-one

> <PUBCHEM_IUPAC_SYSTEMATIC_NAME>
2-[3-[4-(3-chlorophenyl)piperazin-1-yl]propyl]-5-ethyl-4-(2-phenoxyethyl)-1,2,4-triazol-3-one

> <PUBCHEM_IUPAC_TRADITIONAL_NAME>
2-[3-[4-(3-chlorophenyl)piperazino]propyl]-5-ethyl-4-(2-phenoxyethyl)-1,2,4-triazol-3-one

> <PUBCHEM_IUPAC_INCHI>
InChI=1S/C25H32ClN5O2/c1-2-24-27-31(25(32)30(24)18-19-33-23-10-4-3-5-11-23)13-7-12-28-14-16-29(17-15-28)22-9-6-8-21(26)20-22/h3-6,8-11,20H,2,7,12-19H2,1H3

> <PUBCHEM_IUPAC_INCHIKEY>
VRBKIVRKKCLPHA-UHFFFAOYSA-N

> <PUBCHEM_XLOGP3_AA>
4.3

> <PUBCHEM_EXACT_MASS>
469.224453

> <PUBCHEM_MOLECULAR_FORMULA>
C25H32ClN5O2

> <PUBCHEM_MOLECULAR_WEIGHT>
470.00688

> <PUBCHEM_OPENEYE_CAN_SMILES>
CCC1=NN(C(=O)N1CCOC2=CC=CC=C2)CCCN3CCN(CC3)C4=CC(=CC=C4)Cl

> <PUBCHEM_OPENEYE_ISO_SMILES>
CCC1=NN(C(=O)N1CCOC2=CC=CC=C2)CCCN3CCN(CC3)C4=CC(=CC=C4)Cl

> <PUBCHEM_CACTVS_TPSA>
51.6

> <PUBCHEM_MONOISOTOPIC_WEIGHT>
469.224453

> <PUBCHEM_TOTAL_CHARGE>
0

> <PUBCHEM_HEAVY_ATOM_COUNT>
33

> <PUBCHEM_ATOM_DEF_STEREO_COUNT>
0

> <PUBCHEM_ATOM_UDEF_STEREO_COUNT>
0

> <PUBCHEM_BOND_DEF_STEREO_COUNT>
0

> <PUBCHEM_BOND_UDEF_STEREO_COUNT>
0

> <PUBCHEM_ISOTOPIC_ATOM_COUNT>
0

> <PUBCHEM_COMPONENT_COUNT>
1

> <PUBCHEM_CACTVS_TAUTO_COUNT>
2

> <PUBCHEM_COORDINATE_TYPE>
1
5
255

> <PUBCHEM_BONDANNOTATIONS>
16  19  8
16  20  8
19  23  8
20  24  8
23  26  8
24  26  8
28  29  8
28  30  8
29  31  8
30  32  8
31  33  8
32  33  8
6  17  8
6  8  8
7  17  8
7  18  8
8  18  8

> <DRUG_ID>
w145

> <DRUG_NAME>
Nefazodone

$$$$
4260
  CDK     0927151942
null
 45 45  0  0  0  0  0  0  0  0999 V2000
    5.4641    0.7500    0.0000 O   0  0  0  0  0  0  0  0  0  0  0  0
    8.9282   -1.2500    0.0000 O   0  0  0  0  0  0  0  0  0  0  0  0
    9.7942    0.2500    0.0000 O   0  0  0  0  0  0  0  0  0  0  0  0
    2.8660    0.2500    0.0000 N   0  0  0  0  0  0  0  0  0  0  0  0
    7.1962    1.7500    0.0000 C   0  0  0  0  0  0  0  0  0  0  0  0
    7.1962    0.7500    0.0000 C   0  0  0  0  0  0  0  0  0  0  0  0
    6.3301    0.2500    0.0000 C   0  0  0  0  0  0  0  0  0  0  0  0
    8.0622    0.2500    0.0000 C   0  0  0  0  0  0  0  0  0  0  0  0
    8.0622    2.2500    0.0000 C   0  0  0  0  0  0  0  0  0  0  0  0
    6.3301    2.2500    0.0000 C   0  0  0  0  0  0  0  0  0  0  0  0
    7.1962   -1.2500    0.0000 C   0  0  0  0  0  0  0  0  0  0  0  0
    6.3301   -0.7500    0.0000 C   0  0  0  0  0  0  0  0  0  0  0  0
    8.0622   -0.7500    0.0000 C   0  0  0  0  0  0  0  0  0  0  0  0
    4.5981    0.2500    0.0000 C   0  0  0  0  0  0  0  0  0  0  0  0
    3.7320    0.7500    0.0000 C   0  0  0  0  0  0  0  0  0  0  0  0
    7.1962   -2.2500    0.0000 C   0  0  0  0  0  0  0  0  0  0  0  0
    2.0000    0.7500    0.0000 C   0  0  0  0  0  0  0  0  0  0  0  0
    2.8660   -0.7500    0.0000 C   0  0  0  0  0  0  0  0  0  0  0  0
    9.7942   -0.7500    0.0000 C   0  0  0  0  0  0  0  0  0  0  0  0
   10.6603   -1.2500    0.0000 C   0  0  0  0  0  0  0  0  0  0  0  0
    6.6592    1.4400    0.0000 H   0  0  0  0  0  0  0  0  0  0  0  0
    8.5991    0.5600    0.0000 H   0  0  0  0  0  0  0  0  0  0  0  0
    8.3722    1.7131    0.0000 H   0  0  0  0  0  0  0  0  0  0  0  0
    8.5991    2.5600    0.0000 H   0  0  0  0  0  0  0  0  0  0  0  0
    7.7522    2.7869    0.0000 H   0  0  0  0  0  0  0  0  0  0  0  0
    6.6401    2.7869    0.0000 H   0  0  0  0  0  0  0  0  0  0  0  0
    5.7932    2.5600    0.0000 H   0  0  0  0  0  0  0  0  0  0  0  0
    6.0201    1.7131    0.0000 H   0  0  0  0  0  0  0  0  0  0  0  0
    5.7932   -1.0600    0.0000 H   0  0  0  0  0  0  0  0  0  0  0  0
    4.1996   -0.2249    0.0000 H   0  0  0  0  0  0  0  0  0  0  0  0
    4.9966   -0.2249    0.0000 H   0  0  0  0  0  0  0  0  0  0  0  0
    4.1306    1.2250    0.0000 H   0  0  0  0  0  0  0  0  0  0  0  0
    3.3335    1.2250    0.0000 H   0  0  0  0  0  0  0  0  0  0  0  0
    6.5762   -2.2500    0.0000 H   0  0  0  0  0  0  0  0  0  0  0  0
    7.1962   -2.8700    0.0000 H   0  0  0  0  0  0  0  0  0  0  0  0
    7.8162   -2.2500    0.0000 H   0  0  0  0  0  0  0  0  0  0  0  0
    2.3100    1.2869    0.0000 H   0  0  0  0  0  0  0  0  0  0  0  0
    1.4631    1.0600    0.0000 H   0  0  0  0  0  0  0  0  0  0  0  0
    1.6900    0.2131    0.0000 H   0  0  0  0  0  0  0  0  0  0  0  0
    2.2460   -0.7500    0.0000 H   0  0  0  0  0  0  0  0  0  0  0  0
    2.8660   -1.3700    0.0000 H   0  0  0  0  0  0  0  0  0  0  0  0
    3.4860   -0.7500    0.0000 H   0  0  0  0  0  0  0  0  0  0  0  0
   10.3503   -1.7869    0.0000 H   0  0  0  0  0  0  0  0  0  0  0  0
   11.1972   -1.5600    0.0000 H   0  0  0  0  0  0  0  0  0  0  0  0
   10.9703   -0.7131    0.0000 H   0  0  0  0  0  0  0  0  0  0  0  0
  1  7  1  0  0  0  0 
  1 14  1  0  0  0  0 
  2 13  1  0  0  0  0 
  2 19  1  0  0  0  0 
  3 19  2  0  0  0  0 
  4 15  1  0  0  0  0 
  4 17  1  0  0  0  0 
  4 18  1  0  0  0  0 
  5  6  1  0  0  0  0 
  5  9  1  0  0  0  0 
  5 10  1  0  0  0  0 
  5 21  1  0  0  0  0 
  6  7  2  0  0  0  0 
  6  8  1  0  0  0  0 
  7 12  1  0  0  0  0 
  8 13  2  0  0  0  0 
  8 22  1  0  0  0  0 
  9 23  1  0  0  0  0 
  9 24  1  0  0  0  0 
  9 25  1  0  0  0  0 
 10 26  1  0  0  0  0 
 10 27  1  0  0  0  0 
 10 28  1  0  0  0  0 
 11 12  2  0  0  0  0 
 11 13  1  0  0  0  0 
 11 16  1  0  0  0  0 
 12 29  1  0  0  0  0 
 14 15  1  0  0  0  0 
 14 30  1  0  0  0  0 
 14 31  1  0  0  0  0 
 15 32  1  0  0  0  0 
 15 33  1  0  0  0  0 
 16 34  1  0  0  0  0 
 16 35  1  0  0  0  0 
 16 36  1  0  0  0  0 
 17 37  1  0  0  0  0 
 17 38  1  0  0  0  0 
 17 39  1  0  0  0  0 
 18 40  1  0  0  0  0 
 18 41  1  0  0  0  0 
 18 42  1  0  0  0  0 
 19 20  1  0  0  0  0 
 20 43  1  0  0  0  0 
 20 44  1  0  0  0  0 
 20 45  1  0  0  0  0 
M  END
> <cdk:Title>
4260

> <cdk:Remark>
null

> <PUBCHEM_COMPOUND_CID>
4260

> <PUBCHEM_COMPOUND_CANONICALIZED>
1

> <PUBCHEM_CACTVS_COMPLEXITY>
304

> <PUBCHEM_CACTVS_HBOND_ACCEPTOR>
4

> <PUBCHEM_CACTVS_HBOND_DONOR>
0

> <PUBCHEM_CACTVS_ROTATABLE_BOND>
7

> <PUBCHEM_CACTVS_SUBSKEYS>
AAADceB6MAAAAAAAAAAAAAAAAAAAAAAAAAAwAAAAAAAAAAABAAAAHgAAAAAADQThmAYyDoMABACIAiDSCAACCAAgIAAAiAAOCIgOJiKEMRqDOiCkwBEYqAfAwPAOwQABAAAIAACCAAIAABAAAAAAAAAAAA==

> <PUBCHEM_IUPAC_OPENEYE_NAME>
[4-[2-(dimethylamino)ethoxy]-5-isopropyl-2-methyl-phenyl] acetate

> <PUBCHEM_IUPAC_CAS_NAME>
acetic acid [4-[2-(dimethylamino)ethoxy]-2-methyl-5-propan-2-ylphenyl] ester

> <PUBCHEM_IUPAC_NAME>
[4-[2-(dimethylamino)ethoxy]-2-methyl-5-propan-2-ylphenyl] acetate

> <PUBCHEM_IUPAC_SYSTEMATIC_NAME>
[4-[2-(dimethylamino)ethoxy]-2-methyl-5-propan-2-yl-phenyl] ethanoate

> <PUBCHEM_IUPAC_TRADITIONAL_NAME>
acetic acid [4-[2-(dimethylamino)ethoxy]-5-isopropyl-2-methyl-phenyl] ester

> <PUBCHEM_IUPAC_INCHI>
InChI=1S/C16H25NO3/c1-11(2)14-10-15(20-13(4)18)12(3)9-16(14)19-8-7-17(5)6/h9-11H,7-8H2,1-6H3

> <PUBCHEM_IUPAC_INCHIKEY>
VRYMTAVOXVTQEF-UHFFFAOYSA-N

> <PUBCHEM_XLOGP3>
3.2

> <PUBCHEM_EXACT_MASS>
279.183444

> <PUBCHEM_MOLECULAR_FORMULA>
C16H25NO3

> <PUBCHEM_MOLECULAR_WEIGHT>
279.3746

> <PUBCHEM_OPENEYE_CAN_SMILES>
CC1=CC(=C(C=C1OC(=O)C)C(C)C)OCCN(C)C

> <PUBCHEM_OPENEYE_ISO_SMILES>
CC1=CC(=C(C=C1OC(=O)C)C(C)C)OCCN(C)C

> <PUBCHEM_CACTVS_TPSA>
38.8

> <PUBCHEM_MONOISOTOPIC_WEIGHT>
279.183444

> <PUBCHEM_TOTAL_CHARGE>
0

> <PUBCHEM_HEAVY_ATOM_COUNT>
20

> <PUBCHEM_ATOM_DEF_STEREO_COUNT>
0

> <PUBCHEM_ATOM_UDEF_STEREO_COUNT>
0

> <PUBCHEM_BOND_DEF_STEREO_COUNT>
0

> <PUBCHEM_BOND_UDEF_STEREO_COUNT>
0

> <PUBCHEM_ISOTOPIC_ATOM_COUNT>
0

> <PUBCHEM_COMPONENT_COUNT>
1

> <PUBCHEM_CACTVS_TAUTO_COUNT>
6

> <PUBCHEM_COORDINATE_TYPE>
1
5
255

> <PUBCHEM_BONDANNOTATIONS>
11  12  8
11  13  8
6  7  8
6  8  8
7  12  8
8  13  8

> <DRUG_ID>
w146

> <DRUG_NAME>
Moxisylyte

$$$$
3007
  CDK     0927151942
null
 23 23  0  0  0  0  0  0  0  0999 V2000
    3.7320    2.0950    0.0000 N   0  0  0  0  0  0  0  0  0  0  0  0
    3.7320    1.0950    0.0000 C   0  0  3  0  0  0  0  0  0  0  0  0
    2.8660    0.5950    0.0000 C   0  0  0  0  0  0  0  0  0  0  0  0
    2.8660   -0.4050    0.0000 C   0  0  0  0  0  0  0  0  0  0  0  0
    4.5981    0.5950    0.0000 C   0  0  0  0  0  0  0  0  0  0  0  0
    2.0000   -0.9050    0.0000 C   0  0  0  0  0  0  0  0  0  0  0  0
    3.7320   -0.9050    0.0000 C   0  0  0  0  0  0  0  0  0  0  0  0
    2.0000   -1.9050    0.0000 C   0  0  0  0  0  0  0  0  0  0  0  0
    3.7320   -1.9050    0.0000 C   0  0  0  0  0  0  0  0  0  0  0  0
    2.8660   -2.4050    0.0000 C   0  0  0  0  0  0  0  0  0  0  0  0
    4.4682    1.5200    0.0000 H   0  0  0  0  0  0  0  0  0  0  0  0
    2.6540    1.1776    0.0000 H   0  0  0  0  0  0  0  0  0  0  0  0
    2.2554    0.4873    0.0000 H   0  0  0  0  0  0  0  0  0  0  0  0
    4.2881    0.0581    0.0000 H   0  0  0  0  0  0  0  0  0  0  0  0
    5.1350    0.2850    0.0000 H   0  0  0  0  0  0  0  0  0  0  0  0
    4.9081    1.1319    0.0000 H   0  0  0  0  0  0  0  0  0  0  0  0
    1.4631   -0.5950    0.0000 H   0  0  0  0  0  0  0  0  0  0  0  0
    4.2690   -0.5950    0.0000 H   0  0  0  0  0  0  0  0  0  0  0  0
    4.2690    2.4050    0.0000 H   0  0  0  0  0  0  0  0  0  0  0  0
    3.1951    2.4050    0.0000 H   0  0  0  0  0  0  0  0  0  0  0  0
    1.4631   -2.2150    0.0000 H   0  0  0  0  0  0  0  0  0  0  0  0
    4.2690   -2.2150    0.0000 H   0  0  0  0  0  0  0  0  0  0  0  0
    2.8660   -3.0250    0.0000 H   0  0  0  0  0  0  0  0  0  0  0  0
  1  2  1  0  0  0  0 
  1 19  1  0  0  0  0 
  1 20  1  0  0  0  0 
  2  3  1  0  0  0  0 
  2  5  1  0  0  0  0 
  2 11  1  0  0  0  0 
  3  4  1  0  0  0  0 
  3 12  1  0  0  0  0 
  3 13  1  0  0  0  0 
  4  6  2  0  0  0  0 
  4  7  1  0  0  0  0 
  5 14  1  0  0  0  0 
  5 15  1  0  0  0  0 
  5 16  1  0  0  0  0 
  6  8  1  0  0  0  0 
  6 17  1  0  0  0  0 
  7  9  2  0  0  0  0 
  7 18  1  0  0  0  0 
  8 10  2  0  0  0  0 
  8 21  1  0  0  0  0 
  9 10  1  0  0  0  0 
  9 22  1  0  0  0  0 
 10 23  1  0  0  0  0 
M  END
> <cdk:Title>
3007

> <cdk:Remark>
null

> <PUBCHEM_COMPOUND_CID>
3007

> <PUBCHEM_COMPOUND_CANONICALIZED>
1

> <PUBCHEM_CACTVS_COMPLEXITY>
84.7

> <PUBCHEM_CACTVS_HBOND_ACCEPTOR>
1

> <PUBCHEM_CACTVS_HBOND_DONOR>
1

> <PUBCHEM_CACTVS_ROTATABLE_BOND>
2

> <PUBCHEM_CACTVS_SUBSKEYS>
AAADccByAAAAAAAAAAAAAAAAAAAAAAAAAAAwAAAAAAAAAAABAAAAHAAQAAAADCjBGAQyAIBAAACAAiBCAAACAAAgAAAIiIAAAIgIICKAkRGAIAAgkAAIiAcQgIAOAAAAAAAAAAAAAAAAAAAAAAAAAAAAAA==

> <PUBCHEM_IUPAC_OPENEYE_NAME>
1-phenylpropan-2-amine

> <PUBCHEM_IUPAC_CAS_NAME>
1-phenyl-2-propanamine

> <PUBCHEM_IUPAC_NAME>
1-phenylpropan-2-amine

> <PUBCHEM_IUPAC_SYSTEMATIC_NAME>
1-phenylpropan-2-amine

> <PUBCHEM_IUPAC_TRADITIONAL_NAME>
(1-methyl-2-phenyl-ethyl)amine

> <PUBCHEM_IUPAC_INCHI>
InChI=1S/C9H13N/c1-8(10)7-9-5-3-2-4-6-9/h2-6,8H,7,10H2,1H3

> <PUBCHEM_IUPAC_INCHIKEY>
KWTSXDURSIMDCE-UHFFFAOYSA-N

> <PUBCHEM_XLOGP3>
1.8

> <PUBCHEM_EXACT_MASS>
135.104799

> <PUBCHEM_MOLECULAR_FORMULA>
C9H13N

> <PUBCHEM_MOLECULAR_WEIGHT>
135.20622

> <PUBCHEM_OPENEYE_CAN_SMILES>
CC(CC1=CC=CC=C1)N

> <PUBCHEM_OPENEYE_ISO_SMILES>
CC(CC1=CC=CC=C1)N

> <PUBCHEM_CACTVS_TPSA>
26

> <PUBCHEM_MONOISOTOPIC_WEIGHT>
135.104799

> <PUBCHEM_TOTAL_CHARGE>
0

> <PUBCHEM_HEAVY_ATOM_COUNT>
10

> <PUBCHEM_ATOM_DEF_STEREO_COUNT>
0

> <PUBCHEM_ATOM_UDEF_STEREO_COUNT>
1

> <PUBCHEM_BOND_DEF_STEREO_COUNT>
0

> <PUBCHEM_BOND_UDEF_STEREO_COUNT>
0

> <PUBCHEM_ISOTOPIC_ATOM_COUNT>
0

> <PUBCHEM_COMPONENT_COUNT>
1

> <PUBCHEM_CACTVS_TAUTO_COUNT>
1

> <PUBCHEM_COORDINATE_TYPE>
1
5
255

> <PUBCHEM_BONDANNOTATIONS>
2  11  3
4  6  8
4  7  8
6  8  8
7  9  8
8  10  8
9  10  8

> <DRUG_ID>
w147

> <DRUG_NAME>
Amphetamine

$$$$
5284533
  CDK     0927151942
null
 52 55  0  0  0  0  0  0  0  0999 V2000
    5.6489   -2.9775    0.0000 Cl  0  0  0  0  0  0  0  0  0  0  0  0
    8.0319    2.3480    0.0000 O   0  0  0  0  0  0  0  0  0  0  0  0
    9.0465    2.9775    0.0000 O   0  0  0  0  0  0  0  0  0  0  0  0
    2.0000   -1.9606    0.0000 O   0  0  0  0  0  0  0  0  0  0  0  0
    7.3931    1.0917    0.0000 C   0  0  1  0  0  0  0  0  0  0  0  0
    7.3931    0.0917    0.0000 C   0  0  2  0  0  0  0  0  0  0  0  0
    6.5271   -0.4083    0.0000 C   0  0  1  0  0  0  0  0  0  0  0  0
    5.6610    0.0917    0.0000 C   0  0  2  0  0  0  0  0  0  0  0  0
    8.3393    1.3964    0.0000 C   0  0  1  0  0  0  0  0  0  0  0  0
    6.5271    1.5917    0.0000 C   0  0  0  0  0  0  0  0  0  0  0  0
    8.3393   -0.2130    0.0000 C   0  0  0  0  0  0  0  0  0  0  0  0
    5.6610    1.0917    0.0000 C   0  0  0  0  0  0  0  0  0  0  0  0
    4.7510   -0.4151    0.0000 C   0  0  2  0  0  0  0  0  0  0  0  0
    8.9229    0.5917    0.0000 C   0  0  0  0  0  0  0  0  0  0  0  0
    7.3931    2.0917    0.0000 C   0  0  0  0  0  0  0  0  0  0  0  0
    6.5431   -1.4498    0.0000 C   0  0  0  0  0  0  0  0  0  0  0  0
    4.7430   -1.4567    0.0000 C   0  0  0  0  0  0  0  0  0  0  0  0
    3.8242    0.1490    0.0000 C   0  0  0  0  0  0  0  0  0  0  0  0
    9.1493    1.9828    0.0000 C   0  0  0  0  0  0  0  0  0  0  0  0
    4.7587    0.5848    0.0000 C   0  0  0  0  0  0  0  0  0  0  0  0
    5.6451   -1.9775    0.0000 C   0  0  0  0  0  0  0  0  0  0  0  0
    2.8763   -0.3790    0.0000 C   0  0  0  0  0  0  0  0  0  0  0  0
    3.8076   -2.0064    0.0000 C   0  0  0  0  0  0  0  0  0  0  0  0
   10.0622    1.5745    0.0000 C   0  0  0  0  0  0  0  0  0  0  0  0
    2.8680   -1.4640    0.0000 C   0  0  0  0  0  0  0  0  0  0  0  0
    7.4830   -0.7535    0.0000 H   0  0  0  0  0  0  0  0  0  0  0  0
    7.2664   -0.8276    0.0000 H   0  0  0  0  0  0  0  0  0  0  0  0
    6.3972    0.5167    0.0000 H   0  0  0  0  0  0  0  0  0  0  0  0
    6.9256    2.0667    0.0000 H   0  0  0  0  0  0  0  0  0  0  0  0
    6.1285    2.0667    0.0000 H   0  0  0  0  0  0  0  0  0  0  0  0
    8.0883   -0.7799    0.0000 H   0  0  0  0  0  0  0  0  0  0  0  0
    8.8767   -0.5222    0.0000 H   0  0  0  0  0  0  0  0  0  0  0  0
    5.4490    1.6743    0.0000 H   0  0  0  0  0  0  0  0  0  0  0  0
    5.0504    0.9841    0.0000 H   0  0  0  0  0  0  0  0  0  0  0  0
    9.3838    0.1770    0.0000 H   0  0  0  0  0  0  0  0  0  0  0  0
    9.3838    1.0064    0.0000 H   0  0  0  0  0  0  0  0  0  0  0  0
    8.0131    2.0917    0.0000 H   0  0  0  0  0  0  0  0  0  0  0  0
    7.3931    2.7117    0.0000 H   0  0  0  0  0  0  0  0  0  0  0  0
    6.7731    2.0917    0.0000 H   0  0  0  0  0  0  0  0  0  0  0  0
    7.0836   -1.7536    0.0000 H   0  0  0  0  0  0  0  0  0  0  0  0
    4.2324    0.6156    0.0000 H   0  0  0  0  0  0  0  0  0  0  0  0
    3.4343    0.6310    0.0000 H   0  0  0  0  0  0  0  0  0  0  0  0
    5.3787    0.5801    0.0000 H   0  0  0  0  0  0  0  0  0  0  0  0
    4.7635    1.2048    0.0000 H   0  0  0  0  0  0  0  0  0  0  0  0
    4.1388    0.5896    0.0000 H   0  0  0  0  0  0  0  0  0  0  0  0
    8.4476    2.8081    0.0000 H   0  0  0  0  0  0  0  0  0  0  0  0
    2.6718    0.2063    0.0000 H   0  0  0  0  0  0  0  0  0  0  0  0
    2.2647   -0.4804    0.0000 H   0  0  0  0  0  0  0  0  0  0  0  0
    3.8100   -2.6264    0.0000 H   0  0  0  0  0  0  0  0  0  0  0  0
    9.8090    1.0086    0.0000 H   0  0  0  0  0  0  0  0  0  0  0  0
   10.6281    1.3214    0.0000 H   0  0  0  0  0  0  0  0  0  0  0  0
   10.3153    2.1405    0.0000 H   0  0  0  0  0  0  0  0  0  0  0  0
  1 21  1  0  0  0  0 
  9  2  1  6  0  0  0 
  2 46  1  0  0  0  0 
  3 19  2  0  0  0  0 
  4 25  2  0  0  0  0 
  5  6  1  0  0  0  0 
  5  9  1  0  0  0  0 
  5 10  1  0  0  0  0 
  5 15  1  1  0  0  0 
  6  7  1  0  0  0  0 
  6 11  1  0  0  0  0 
  6 26  1  6  0  0  0 
  7  8  1  0  0  0  0 
  7 16  1  0  0  0  0 
  7 27  1  1  0  0  0 
  8 12  1  0  0  0  0 
  8 13  1  0  0  0  0 
  8 28  1  6  0  0  0 
  9 14  1  0  0  0  0 
  9 19  1  0  0  0  0 
 10 12  1  0  0  0  0 
 10 29  1  0  0  0  0 
 10 30  1  0  0  0  0 
 11 14  1  0  0  0  0 
 11 31  1  0  0  0  0 
 11 32  1  0  0  0  0 
 12 33  1  0  0  0  0 
 12 34  1  0  0  0  0 
 13 17  1  0  0  0  0 
 13 18  1  0  0  0  0 
 13 20  1  1  0  0  0 
 14 35  1  0  0  0  0 
 14 36  1  0  0  0  0 
 15 37  1  0  0  0  0 
 15 38  1  0  0  0  0 
 15 39  1  0  0  0  0 
 16 21  2  0  0  0  0 
 16 40  1  0  0  0  0 
 17 21  1  0  0  0  0 
 17 23  2  0  0  0  0 
 18 22  1  0  0  0  0 
 18 41  1  0  0  0  0 
 18 42  1  0  0  0  0 
 19 24  1  0  0  0  0 
 20 43  1  0  0  0  0 
 20 44  1  0  0  0  0 
 20 45  1  0  0  0  0 
 22 25  1  0  0  0  0 
 22 47  1  0  0  0  0 
 22 48  1  0  0  0  0 
 23 25  1  0  0  0  0 
 23 49  1  0  0  0  0 
 24 50  1  0  0  0  0 
 24 51  1  0  0  0  0 
 24 52  1  0  0  0  0 
M  END
> <cdk:Title>
5284533

> <cdk:Remark>
null

> <PUBCHEM_COMPOUND_CID>
5284533

> <PUBCHEM_COMPOUND_CANONICALIZED>
1

> <PUBCHEM_CACTVS_COMPLEXITY>
723

> <PUBCHEM_CACTVS_HBOND_ACCEPTOR>
3

> <PUBCHEM_CACTVS_HBOND_DONOR>
1

> <PUBCHEM_CACTVS_ROTATABLE_BOND>
1

> <PUBCHEM_CACTVS_SUBSKEYS>
AAADceB4MAAEAAAAAAAAAAAAAAAAAYAAAAAwQIAAAAAAAGCAAAAAGgIACAAAD0aAgAACAAAAAgCIAqBSAAIAAAAgAAAACAFAAkgIABIBAAAAQAAEgAAIgQOIyPCPgAAAAAAAAACAAAQAACAAAYAADAAAAA==

> <PUBCHEM_IUPAC_OPENEYE_NAME>
(8R,9S,10R,13S,14S,17R)-17-acetyl-6-chloro-17-hydroxy-10,13-dimethyl-2,8,9,11,12,14,15,16-octahydro-1H-cyclopenta[a]phenanthren-3-one

> <PUBCHEM_IUPAC_CAS_NAME>
(8R,9S,10R,13S,14S,17R)-17-acetyl-6-chloro-17-hydroxy-10,13-dimethyl-2,8,9,11,12,14,15,16-octahydro-1H-cyclopenta[a]phenanthren-3-one

> <PUBCHEM_IUPAC_NAME>
(8R,9S,10R,13S,14S,17R)-17-acetyl-6-chloro-17-hydroxy-10,13-dimethyl-2,8,9,11,12,14,15,16-octahydro-1H-cyclopenta[a]phenanthren-3-one

> <PUBCHEM_IUPAC_SYSTEMATIC_NAME>
(8R,9S,10R,13S,14S,17R)-6-chloranyl-17-ethanoyl-10,13-dimethyl-17-oxidanyl-2,8,9,11,12,14,15,16-octahydro-1H-cyclopenta[a]phenanthren-3-one

> <PUBCHEM_IUPAC_TRADITIONAL_NAME>
(8R,9S,10R,13S,14S,17R)-17-acetyl-6-chloro-17-hydroxy-10,13-dimethyl-2,8,9,11,12,14,15,16-octahydro-1H-cyclopenta[a]phenanthren-3-one

> <PUBCHEM_IUPAC_INCHI>
InChI=1S/C21H27ClO3/c1-12(23)21(25)9-6-16-14-11-18(22)17-10-13(24)4-7-19(17,2)15(14)5-8-20(16,21)3/h10-11,14-16,25H,4-9H2,1-3H3/t14-,15+,16+,19-,20+,21+/m1/s1

> <PUBCHEM_IUPAC_INCHIKEY>
VUHJZBBCZGVNDZ-TTYLFXKOSA-N

> <PUBCHEM_XLOGP3_AA>
3

> <PUBCHEM_EXACT_MASS>
362.164872

> <PUBCHEM_MOLECULAR_FORMULA>
C21H27ClO3

> <PUBCHEM_MOLECULAR_WEIGHT>
362.89028

> <PUBCHEM_OPENEYE_CAN_SMILES>
CC(=O)C1(CCC2C1(CCC3C2C=C(C4=CC(=O)CCC34C)Cl)C)O

> <PUBCHEM_OPENEYE_ISO_SMILES>
CC(=O)[C@]1(CC[C@@H]2[C@@]1(CC[C@H]3[C@H]2C=C(C4=CC(=O)CC[C@]34C)Cl)C)O

> <PUBCHEM_CACTVS_TPSA>
54.4

> <PUBCHEM_MONOISOTOPIC_WEIGHT>
362.164872

> <PUBCHEM_TOTAL_CHARGE>
0

> <PUBCHEM_HEAVY_ATOM_COUNT>
25

> <PUBCHEM_ATOM_DEF_STEREO_COUNT>
6

> <PUBCHEM_ATOM_UDEF_STEREO_COUNT>
0

> <PUBCHEM_BOND_DEF_STEREO_COUNT>
0

> <PUBCHEM_BOND_UDEF_STEREO_COUNT>
0

> <PUBCHEM_ISOTOPIC_ATOM_COUNT>
0

> <PUBCHEM_COMPONENT_COUNT>
1

> <PUBCHEM_CACTVS_TAUTO_COUNT>
10

> <PUBCHEM_COORDINATE_TYPE>
1
5
255

> <PUBCHEM_BONDANNOTATIONS>
13  20  5
9  2  6
5  15  5
6  26  6
7  27  5
8  28  6

> <DRUG_ID>
w148

> <DRUG_NAME>
Chlormadinone

$$$$
4781
  CDK     0927151942
null
 43 45  0  0  0  0  0  0  0  0999 V2000
    2.0000   -0.7132    0.0000 O   0  0  0  0  0  0  0  0  0  0  0  0
    4.8479    1.3559    0.0000 O   0  0  0  0  0  0  0  0  0  0  0  0
    3.7601   -0.9920    0.0000 N   0  0  0  0  0  0  0  0  0  0  0  0
    4.5691   -0.4042    0.0000 N   0  0  0  0  0  0  0  0  0  0  0  0
    3.2601    0.5469    0.0000 C   0  0  0  0  0  0  0  0  0  0  0  0
    2.6723    1.3559    0.0000 C   0  0  0  0  0  0  0  0  0  0  0  0
    2.9511   -0.4042    0.0000 C   0  0  0  0  0  0  0  0  0  0  0  0
    4.2601    0.5469    0.0000 C   0  0  0  0  0  0  0  0  0  0  0  0
    3.0790    2.2694    0.0000 C   0  0  0  0  0  0  0  0  0  0  0  0
    2.4912    3.0784    0.0000 C   0  0  0  0  0  0  0  0  0  0  0  0
    3.7601   -1.9920    0.0000 C   0  0  0  0  0  0  0  0  0  0  0  0
    5.5202   -0.7132    0.0000 C   0  0  0  0  0  0  0  0  0  0  0  0
    2.8980    3.9920    0.0000 C   0  0  0  0  0  0  0  0  0  0  0  0
    2.8940   -2.4920    0.0000 C   0  0  0  0  0  0  0  0  0  0  0  0
    5.7281   -1.6914    0.0000 C   0  0  0  0  0  0  0  0  0  0  0  0
    4.6261   -2.4920    0.0000 C   0  0  0  0  0  0  0  0  0  0  0  0
    6.2633   -0.0441    0.0000 C   0  0  0  0  0  0  0  0  0  0  0  0
    2.8940   -3.4920    0.0000 C   0  0  0  0  0  0  0  0  0  0  0  0
    6.6791   -2.0004    0.0000 C   0  0  0  0  0  0  0  0  0  0  0  0
    7.2144   -0.3531    0.0000 C   0  0  0  0  0  0  0  0  0  0  0  0
    4.6261   -3.4920    0.0000 C   0  0  0  0  0  0  0  0  0  0  0  0
    3.7601   -3.9920    0.0000 C   0  0  0  0  0  0  0  0  0  0  0  0
    7.4223   -1.3312    0.0000 C   0  0  0  0  0  0  0  0  0  0  0  0
    3.5416    1.0993    0.0000 H   0  0  0  0  0  0  0  0  0  0  0  0
    2.1583    1.7026    0.0000 H   0  0  0  0  0  0  0  0  0  0  0  0
    2.2416    0.9099    0.0000 H   0  0  0  0  0  0  0  0  0  0  0  0
    3.5930    1.9227    0.0000 H   0  0  0  0  0  0  0  0  0  0  0  0
    3.5097    2.7154    0.0000 H   0  0  0  0  0  0  0  0  0  0  0  0
    1.9772    3.4251    0.0000 H   0  0  0  0  0  0  0  0  0  0  0  0
    2.0606    2.6324    0.0000 H   0  0  0  0  0  0  0  0  0  0  0  0
    3.4644    3.7398    0.0000 H   0  0  0  0  0  0  0  0  0  0  0  0
    3.1502    4.5584    0.0000 H   0  0  0  0  0  0  0  0  0  0  0  0
    2.3316    4.2442    0.0000 H   0  0  0  0  0  0  0  0  0  0  0  0
    5.2673   -2.1062    0.0000 H   0  0  0  0  0  0  0  0  0  0  0  0
    2.3571   -2.1820    0.0000 H   0  0  0  0  0  0  0  0  0  0  0  0
    6.1344    0.5624    0.0000 H   0  0  0  0  0  0  0  0  0  0  0  0
    5.1630   -2.1820    0.0000 H   0  0  0  0  0  0  0  0  0  0  0  0
    2.3571   -3.8020    0.0000 H   0  0  0  0  0  0  0  0  0  0  0  0
    6.8080   -2.6068    0.0000 H   0  0  0  0  0  0  0  0  0  0  0  0
    7.6751    0.0618    0.0000 H   0  0  0  0  0  0  0  0  0  0  0  0
    5.1630   -3.8020    0.0000 H   0  0  0  0  0  0  0  0  0  0  0  0
    3.7601   -4.6120    0.0000 H   0  0  0  0  0  0  0  0  0  0  0  0
    8.0119   -1.5228    0.0000 H   0  0  0  0  0  0  0  0  0  0  0  0
  1  7  2  0  0  0  0 
  2  8  2  0  0  0  0 
  3  4  1  0  0  0  0 
  3  7  1  0  0  0  0 
  3 11  1  0  0  0  0 
  4  8  1  0  0  0  0 
  4 12  1  0  0  0  0 
  5  6  1  0  0  0  0 
  5  7  1  0  0  0  0 
  5  8  1  0  0  0  0 
  5 24  1  0  0  0  0 
  6  9  1  0  0  0  0 
  6 25  1  0  0  0  0 
  6 26  1  0  0  0  0 
  9 10  1  0  0  0  0 
  9 27  1  0  0  0  0 
  9 28  1  0  0  0  0 
 10 13  1  0  0  0  0 
 10 29  1  0  0  0  0 
 10 30  1  0  0  0  0 
 11 14  2  0  0  0  0 
 11 16  1  0  0  0  0 
 12 15  2  0  0  0  0 
 12 17  1  0  0  0  0 
 13 31  1  0  0  0  0 
 13 32  1  0  0  0  0 
 13 33  1  0  0  0  0 
 14 18  1  0  0  0  0 
 14 35  1  0  0  0  0 
 15 19  1  0  0  0  0 
 15 34  1  0  0  0  0 
 16 21  2  0  0  0  0 
 16 37  1  0  0  0  0 
 17 20  2  0  0  0  0 
 17 36  1  0  0  0  0 
 18 22  2  0  0  0  0 
 18 38  1  0  0  0  0 
 19 23  2  0  0  0  0 
 19 39  1  0  0  0  0 
 20 23  1  0  0  0  0 
 20 40  1  0  0  0  0 
 21 22  1  0  0  0  0 
 21 41  1  0  0  0  0 
 22 42  1  0  0  0  0 
 23 43  1  0  0  0  0 
M  END
> <cdk:Title>
4781

> <cdk:Remark>
null

> <PUBCHEM_COMPOUND_CID>
4781

> <PUBCHEM_COMPOUND_CANONICALIZED>
1

> <PUBCHEM_CACTVS_COMPLEXITY>
389

> <PUBCHEM_CACTVS_HBOND_ACCEPTOR>
2

> <PUBCHEM_CACTVS_HBOND_DONOR>
0

> <PUBCHEM_CACTVS_ROTATABLE_BOND>
5

> <PUBCHEM_CACTVS_SUBSKEYS>
AAADceB7MAAAAAAAAAAAAAAAAAAAAWAAAAAwYAAAAAAAAAABQAAAHgAIAAAADQiBkAAywIIAAACIACVSUACCBAAhAgAaiAEAZIgIIDrI0ZGEIAhghADIyAcYCAAMAAAAAAAAAAAAAAAAAAAAAAAAAAAAAA==

> <PUBCHEM_IUPAC_OPENEYE_NAME>
4-butyl-1,2-diphenyl-pyrazolidine-3,5-dione

> <PUBCHEM_IUPAC_CAS_NAME>
4-butyl-1,2-diphenylpyrazolidine-3,5-dione

> <PUBCHEM_IUPAC_NAME>
4-butyl-1,2-diphenylpyrazolidine-3,5-dione

> <PUBCHEM_IUPAC_SYSTEMATIC_NAME>
4-butyl-1,2-diphenyl-pyrazolidine-3,5-dione

> <PUBCHEM_IUPAC_TRADITIONAL_NAME>
4-butyl-1,2-diphenyl-pyrazolidine-3,5-quinone

> <PUBCHEM_IUPAC_INCHI>
InChI=1S/C19H20N2O2/c1-2-3-14-17-18(22)20(15-10-6-4-7-11-15)21(19(17)23)16-12-8-5-9-13-16/h4-13,17H,2-3,14H2,1H3

> <PUBCHEM_IUPAC_INCHIKEY>
VYMDGNCVAMGZFE-UHFFFAOYSA-N

> <PUBCHEM_XLOGP3>
3.2

> <PUBCHEM_EXACT_MASS>
308.152478

> <PUBCHEM_MOLECULAR_FORMULA>
C19H20N2O2

> <PUBCHEM_MOLECULAR_WEIGHT>
308.3743

> <PUBCHEM_OPENEYE_CAN_SMILES>
CCCCC1C(=O)N(N(C1=O)C2=CC=CC=C2)C3=CC=CC=C3

> <PUBCHEM_OPENEYE_ISO_SMILES>
CCCCC1C(=O)N(N(C1=O)C2=CC=CC=C2)C3=CC=CC=C3

> <PUBCHEM_CACTVS_TPSA>
40.6

> <PUBCHEM_MONOISOTOPIC_WEIGHT>
308.152478

> <PUBCHEM_TOTAL_CHARGE>
0

> <PUBCHEM_HEAVY_ATOM_COUNT>
23

> <PUBCHEM_ATOM_DEF_STEREO_COUNT>
0

> <PUBCHEM_ATOM_UDEF_STEREO_COUNT>
0

> <PUBCHEM_BOND_DEF_STEREO_COUNT>
0

> <PUBCHEM_BOND_UDEF_STEREO_COUNT>
0

> <PUBCHEM_ISOTOPIC_ATOM_COUNT>
0

> <PUBCHEM_COMPONENT_COUNT>
1

> <PUBCHEM_CACTVS_TAUTO_COUNT>
2

> <PUBCHEM_COORDINATE_TYPE>
1
5
255

> <PUBCHEM_BONDANNOTATIONS>
11  14  8
11  16  8
12  15  8
12  17  8
14  18  8
15  19  8
16  21  8
17  20  8
18  22  8
19  23  8
20  23  8
21  22  8

> <DRUG_ID>
w149

> <DRUG_NAME>
Phenylbutazone

$$$$
239062
  CDK     0927151942
null
 49 51  0  0  0  0  0  0  0  0999 V2000
    4.5981    0.5950    0.0000 O   0  0  0  0  0  0  0  0  0  0  0  0
    2.0000    1.0950    0.0000 O   0  0  0  0  0  0  0  0  0  0  0  0
    7.1962    5.0950    0.0000 O   0  0  0  0  0  0  0  0  0  0  0  0
    8.0622    3.5950    0.0000 O   0  0  0  0  0  0  0  0  0  0  0  0
    3.7320    2.0950    0.0000 N   0  0  0  0  0  0  0  0  0  0  0  0
    3.7320    1.0950    0.0000 C   0  0  3  0  0  0  0  0  0  0  0  0
    2.8660   -0.4050    0.0000 C   0  0  0  0  0  0  0  0  0  0  0  0
    2.8660    0.5950    0.0000 C   0  0  0  0  0  0  0  0  0  0  0  0
    2.8660   -2.4050    0.0000 C   0  0  0  0  0  0  0  0  0  0  0  0
    4.5981    2.5950    0.0000 C   0  0  0  0  0  0  0  0  0  0  0  0
    2.0000   -0.9050    0.0000 C   0  0  0  0  0  0  0  0  0  0  0  0
    3.7320   -0.9050    0.0000 C   0  0  0  0  0  0  0  0  0  0  0  0
    2.0000   -1.9050    0.0000 C   0  0  0  0  0  0  0  0  0  0  0  0
    3.7320   -1.9050    0.0000 C   0  0  0  0  0  0  0  0  0  0  0  0
    2.8660   -3.4050    0.0000 C   0  0  0  0  0  0  0  0  0  0  0  0
    5.4641    1.0950    0.0000 C   0  0  0  0  0  0  0  0  0  0  0  0
    5.4641    2.0950    0.0000 C   0  0  0  0  0  0  0  0  0  0  0  0
    4.5981    3.5950    0.0000 C   0  0  0  0  0  0  0  0  0  0  0  0
    6.3301    2.5950    0.0000 C   0  0  0  0  0  0  0  0  0  0  0  0
    5.4641    4.0950    0.0000 C   0  0  0  0  0  0  0  0  0  0  0  0
    6.3301    3.5950    0.0000 C   0  0  0  0  0  0  0  0  0  0  0  0
    2.0000   -3.9050    0.0000 C   0  0  0  0  0  0  0  0  0  0  0  0
    3.7320   -3.9050    0.0000 C   0  0  0  0  0  0  0  0  0  0  0  0
    6.3301    0.5950    0.0000 C   0  0  0  0  0  0  0  0  0  0  0  0
    2.0000   -4.9050    0.0000 C   0  0  0  0  0  0  0  0  0  0  0  0
    3.7320   -4.9050    0.0000 C   0  0  0  0  0  0  0  0  0  0  0  0
    2.8660   -5.4050    0.0000 C   0  0  0  0  0  0  0  0  0  0  0  0
    7.1962    4.0950    0.0000 C   0  0  0  0  0  0  0  0  0  0  0  0
    3.7320    0.4750    0.0000 H   0  0  0  0  0  0  0  0  0  0  0  0
    3.1951    2.4050    0.0000 H   0  0  0  0  0  0  0  0  0  0  0  0
    1.4631   -0.5950    0.0000 H   0  0  0  0  0  0  0  0  0  0  0  0
    4.2690   -0.5950    0.0000 H   0  0  0  0  0  0  0  0  0  0  0  0
    1.4631   -2.2150    0.0000 H   0  0  0  0  0  0  0  0  0  0  0  0
    4.2690   -2.2150    0.0000 H   0  0  0  0  0  0  0  0  0  0  0  0
    5.8626    1.5700    0.0000 H   0  0  0  0  0  0  0  0  0  0  0  0
    5.0656    1.5700    0.0000 H   0  0  0  0  0  0  0  0  0  0  0  0
    5.4641    1.4750    0.0000 H   0  0  0  0  0  0  0  0  0  0  0  0
    4.0611    3.9050    0.0000 H   0  0  0  0  0  0  0  0  0  0  0  0
    6.8671    2.2850    0.0000 H   0  0  0  0  0  0  0  0  0  0  0  0
    5.4641    4.7150    0.0000 H   0  0  0  0  0  0  0  0  0  0  0  0
    1.4631   -3.5950    0.0000 H   0  0  0  0  0  0  0  0  0  0  0  0
    4.2690   -3.5950    0.0000 H   0  0  0  0  0  0  0  0  0  0  0  0
    6.0201    0.0581    0.0000 H   0  0  0  0  0  0  0  0  0  0  0  0
    6.8671    0.2850    0.0000 H   0  0  0  0  0  0  0  0  0  0  0  0
    6.6401    1.1319    0.0000 H   0  0  0  0  0  0  0  0  0  0  0  0
    1.4631   -5.2150    0.0000 H   0  0  0  0  0  0  0  0  0  0  0  0
    4.2690   -5.2150    0.0000 H   0  0  0  0  0  0  0  0  0  0  0  0
    2.8660   -6.0250    0.0000 H   0  0  0  0  0  0  0  0  0  0  0  0
    7.7331    5.4050    0.0000 H   0  0  0  0  0  0  0  0  0  0  0  0
  1  6  1  0  0  0  0 
  1 16  1  0  0  0  0 
  2  8  2  0  0  0  0 
  3 28  1  0  0  0  0 
  3 49  1  0  0  0  0 
  4 28  2  0  0  0  0 
  5  6  1  0  0  0  0 
  5 10  1  0  0  0  0 
  5 30  1  0  0  0  0 
  6  8  1  0  0  0  0 
  6 29  1  0  0  0  0 
  7  8  1  0  0  0  0 
  7 11  2  0  0  0  0 
  7 12  1  0  0  0  0 
  9 13  2  0  0  0  0 
  9 14  1  0  0  0  0 
  9 15  1  0  0  0  0 
 10 17  2  0  0  0  0 
 10 18  1  0  0  0  0 
 11 13  1  0  0  0  0 
 11 31  1  0  0  0  0 
 12 14  2  0  0  0  0 
 12 32  1  0  0  0  0 
 13 33  1  0  0  0  0 
 14 34  1  0  0  0  0 
 15 22  2  0  0  0  0 
 15 23  1  0  0  0  0 
 16 24  1  0  0  0  0 
 16 35  1  0  0  0  0 
 16 36  1  0  0  0  0 
 17 19  1  0  0  0  0 
 17 37  1  0  0  0  0 
 18 20  2  0  0  0  0 
 18 38  1  0  0  0  0 
 19 21  2  0  0  0  0 
 19 39  1  0  0  0  0 
 20 21  1  0  0  0  0 
 20 40  1  0  0  0  0 
 21 28  1  0  0  0  0 
 22 25  1  0  0  0  0 
 22 41  1  0  0  0  0 
 23 26  2  0  0  0  0 
 23 42  1  0  0  0  0 
 24 43  1  0  0  0  0 
 24 44  1  0  0  0  0 
 24 45  1  0  0  0  0 
 25 27  2  0  0  0  0 
 25 46  1  0  0  0  0 
 26 27  1  0  0  0  0 
 26 47  1  0  0  0  0 
 27 48  1  0  0  0  0 
M  END
> <cdk:Title>
239062

> <cdk:Remark>
null

> <PUBCHEM_COMPOUND_CID>
239062

> <PUBCHEM_COMPOUND_CANONICALIZED>
1

> <PUBCHEM_CACTVS_COMPLEXITY>
501

> <PUBCHEM_CACTVS_HBOND_ACCEPTOR>
5

> <PUBCHEM_CACTVS_HBOND_DONOR>
2

> <PUBCHEM_CACTVS_ROTATABLE_BOND>
8

> <PUBCHEM_CACTVS_SUBSKEYS>
AAADceB6OAAAAAAAAAAAAAAAAAAAAAAAAAAwYMAAAAAAAAABUAAAHgAQCAAADAzhmAYyyILABgCIAqTSSAKCAAAlAgAIiIHIbMkIJjLAlbWOcQhk0AHI2YeY2eOeyAAAAAAAAACQAAAAAAAAAAAAAAAAAA==

> <PUBCHEM_IUPAC_OPENEYE_NAME>
4-[[1-ethoxy-2-oxo-2-(4-phenylphenyl)ethyl]amino]benzoic acid

> <PUBCHEM_IUPAC_CAS_NAME>
4-[[1-ethoxy-2-oxo-2-(4-phenylphenyl)ethyl]amino]benzoic acid

> <PUBCHEM_IUPAC_NAME>
4-[[1-ethoxy-2-oxo-2-(4-phenylphenyl)ethyl]amino]benzoic acid

> <PUBCHEM_IUPAC_SYSTEMATIC_NAME>
4-[[1-ethoxy-2-oxidanylidene-2-(4-phenylphenyl)ethyl]amino]benzoic acid

> <PUBCHEM_IUPAC_TRADITIONAL_NAME>
4-[[1-ethoxy-2-keto-2-(4-phenylphenyl)ethyl]amino]benzoic acid

> <PUBCHEM_IUPAC_INCHI>
InChI=1S/C23H21NO4/c1-2-28-22(24-20-14-12-19(13-15-20)23(26)27)21(25)18-10-8-17(9-11-18)16-6-4-3-5-7-16/h3-15,22,24H,2H2,1H3,(H,26,27)

> <PUBCHEM_IUPAC_INCHIKEY>
BPOMPTVRBWXZBY-UHFFFAOYSA-N

> <PUBCHEM_XLOGP3_AA>
4.8

> <PUBCHEM_EXACT_MASS>
375.147058

> <PUBCHEM_MOLECULAR_FORMULA>
C23H21NO4

> <PUBCHEM_MOLECULAR_WEIGHT>
375.41714

> <PUBCHEM_OPENEYE_CAN_SMILES>
CCOC(C(=O)C1=CC=C(C=C1)C2=CC=CC=C2)NC3=CC=C(C=C3)C(=O)O

> <PUBCHEM_OPENEYE_ISO_SMILES>
CCOC(C(=O)C1=CC=C(C=C1)C2=CC=CC=C2)NC3=CC=C(C=C3)C(=O)O

> <PUBCHEM_CACTVS_TPSA>
75.6

> <PUBCHEM_MONOISOTOPIC_WEIGHT>
375.147058

> <PUBCHEM_TOTAL_CHARGE>
0

> <PUBCHEM_HEAVY_ATOM_COUNT>
28

> <PUBCHEM_ATOM_DEF_STEREO_COUNT>
0

> <PUBCHEM_ATOM_UDEF_STEREO_COUNT>
1

> <PUBCHEM_BOND_DEF_STEREO_COUNT>
0

> <PUBCHEM_BOND_UDEF_STEREO_COUNT>
0

> <PUBCHEM_ISOTOPIC_ATOM_COUNT>
0

> <PUBCHEM_COMPONENT_COUNT>
1

> <PUBCHEM_CACTVS_TAUTO_COUNT>
10

> <PUBCHEM_COORDINATE_TYPE>
1
5
255

> <PUBCHEM_BONDANNOTATIONS>
10  17  8
10  18  8
11  13  8
12  14  8
15  22  8
15  23  8
17  19  8
18  20  8
19  21  8
20  21  8
22  25  8
23  26  8
25  27  8
26  27  8
6  8  3
7  11  8
7  12  8
9  13  8
9  14  8

> <DRUG_ID>
w15

> <DRUG_NAME>
Xenazoic acid

$$$$
2717
  CDK     0927151942
null
 29 30  0  0  0  0  0  0  0  0999 V2000
    2.0000   -2.2500    0.0000 Cl  0  0  0  0  0  0  0  0  0  0  0  0
    6.3301   -0.7500    0.0000 S   0  0  0  0  0  0  0  0  0  0  0  0
    6.8301   -1.6160    0.0000 O   0  0  0  0  0  0  0  0  0  0  0  0
    5.8301   -1.6160    0.0000 O   0  0  0  0  0  0  0  0  0  0  0  0
    6.3301    2.2500    0.0000 O   0  0  0  0  0  0  0  0  0  0  0  0
    5.4641    0.7500    0.0000 N   0  0  0  0  0  0  0  0  0  0  0  0
    5.4641   -0.2500    0.0000 C   0  0  3  0  0  0  0  0  0  0  0  0
    7.1962   -0.2500    0.0000 C   0  0  0  0  0  0  0  0  0  0  0  0
    7.1962    0.7500    0.0000 C   0  0  0  0  0  0  0  0  0  0  0  0
    4.5981   -0.7500    0.0000 C   0  0  0  0  0  0  0  0  0  0  0  0
    6.3301    1.2500    0.0000 C   0  0  0  0  0  0  0  0  0  0  0  0
    4.5981    1.2500    0.0000 C   0  0  0  0  0  0  0  0  0  0  0  0
    3.7320   -0.2500    0.0000 C   0  0  0  0  0  0  0  0  0  0  0  0
    4.5981   -1.7500    0.0000 C   0  0  0  0  0  0  0  0  0  0  0  0
    2.8660   -0.7500    0.0000 C   0  0  0  0  0  0  0  0  0  0  0  0
    3.7320   -2.2500    0.0000 C   0  0  0  0  0  0  0  0  0  0  0  0
    2.8660   -1.7500    0.0000 C   0  0  0  0  0  0  0  0  0  0  0  0
    5.4641   -0.8700    0.0000 H   0  0  0  0  0  0  0  0  0  0  0  0
    7.4082   -0.8326    0.0000 H   0  0  0  0  0  0  0  0  0  0  0  0
    7.8067   -0.1423    0.0000 H   0  0  0  0  0  0  0  0  0  0  0  0
    7.8067    0.6423    0.0000 H   0  0  0  0  0  0  0  0  0  0  0  0
    7.4082    1.3326    0.0000 H   0  0  0  0  0  0  0  0  0  0  0  0
    4.9081    1.7869    0.0000 H   0  0  0  0  0  0  0  0  0  0  0  0
    4.0611    1.5600    0.0000 H   0  0  0  0  0  0  0  0  0  0  0  0
    4.2881    0.7131    0.0000 H   0  0  0  0  0  0  0  0  0  0  0  0
    3.7320    0.3700    0.0000 H   0  0  0  0  0  0  0  0  0  0  0  0
    5.1350   -2.0600    0.0000 H   0  0  0  0  0  0  0  0  0  0  0  0
    2.3291   -0.4400    0.0000 H   0  0  0  0  0  0  0  0  0  0  0  0
    3.7320   -2.8700    0.0000 H   0  0  0  0  0  0  0  0  0  0  0  0
  1 17  1  0  0  0  0 
  2  3  2  0  0  0  0 
  2  4  2  0  0  0  0 
  2  7  1  0  0  0  0 
  2  8  1  0  0  0  0 
  5 11  2  0  0  0  0 
  6  7  1  0  0  0  0 
  6 11  1  0  0  0  0 
  6 12  1  0  0  0  0 
  7 10  1  0  0  0  0 
  7 18  1  0  0  0  0 
  8  9  1  0  0  0  0 
  8 19  1  0  0  0  0 
  8 20  1  0  0  0  0 
  9 11  1  0  0  0  0 
  9 21  1  0  0  0  0 
  9 22  1  0  0  0  0 
 10 13  2  0  0  0  0 
 10 14  1  0  0  0  0 
 12 23  1  0  0  0  0 
 12 24  1  0  0  0  0 
 12 25  1  0  0  0  0 
 13 15  1  0  0  0  0 
 13 26  1  0  0  0  0 
 14 16  2  0  0  0  0 
 14 27  1  0  0  0  0 
 15 17  2  0  0  0  0 
 15 28  1  0  0  0  0 
 16 17  1  0  0  0  0 
 16 29  1  0  0  0  0 
M  END
> <cdk:Title>
2717

> <cdk:Remark>
null

> <PUBCHEM_COMPOUND_CID>
2717

> <PUBCHEM_COMPOUND_CANONICALIZED>
1

> <PUBCHEM_CACTVS_COMPLEXITY>
395

> <PUBCHEM_CACTVS_HBOND_ACCEPTOR>
3

> <PUBCHEM_CACTVS_HBOND_DONOR>
0

> <PUBCHEM_CACTVS_ROTATABLE_BOND>
1

> <PUBCHEM_CACTVS_SUBSKEYS>
AAADccByMABEAAAAAAAAAAAAAAAAAAAAAAA8QAAAAAAAAAABAAAAHgYAAAAADALF2CSyAIMAAAqIAiFSEHDKAABgBRAIiAEIBogIICKhkxGEIAhghgCoiAcQgAAOBAAAAAAAAAAIAAAAAAAAAAAAAAAAAA==

> <PUBCHEM_IUPAC_OPENEYE_NAME>
2-(4-chlorophenyl)-3-methyl-1,1-dioxo-1,3-thiazinan-4-one

> <PUBCHEM_IUPAC_CAS_NAME>
2-(4-chlorophenyl)-3-methyl-1,1-dioxo-1,3-thiazinan-4-one

> <PUBCHEM_IUPAC_NAME>
2-(4-chlorophenyl)-3-methyl-1,1-dioxo-1,3-thiazinan-4-one

> <PUBCHEM_IUPAC_SYSTEMATIC_NAME>
2-(4-chlorophenyl)-3-methyl-1,1-bis(oxidanylidene)-1,3-thiazinan-4-one

> <PUBCHEM_IUPAC_TRADITIONAL_NAME>
2-(4-chlorophenyl)-1,1-diketo-3-methyl-1,3-thiazinan-4-one

> <PUBCHEM_IUPAC_INCHI>
InChI=1S/C11H12ClNO3S/c1-13-10(14)6-7-17(15,16)11(13)8-2-4-9(12)5-3-8/h2-5,11H,6-7H2,1H3

> <PUBCHEM_IUPAC_INCHIKEY>
WEQAYVWKMWHEJO-UHFFFAOYSA-N

> <PUBCHEM_XLOGP3_AA>
1.1

> <PUBCHEM_EXACT_MASS>
273.022642

> <PUBCHEM_MOLECULAR_FORMULA>
C11H12ClNO3S

> <PUBCHEM_MOLECULAR_WEIGHT>
273.73588

> <PUBCHEM_OPENEYE_CAN_SMILES>
CN1C(S(=O)(=O)CCC1=O)C2=CC=C(C=C2)Cl

> <PUBCHEM_OPENEYE_ISO_SMILES>
CN1C(S(=O)(=O)CCC1=O)C2=CC=C(C=C2)Cl

> <PUBCHEM_CACTVS_TPSA>
62.8

> <PUBCHEM_MONOISOTOPIC_WEIGHT>
273.022642

> <PUBCHEM_TOTAL_CHARGE>
0

> <PUBCHEM_HEAVY_ATOM_COUNT>
17

> <PUBCHEM_ATOM_DEF_STEREO_COUNT>
0

> <PUBCHEM_ATOM_UDEF_STEREO_COUNT>
1

> <PUBCHEM_BOND_DEF_STEREO_COUNT>
0

> <PUBCHEM_BOND_UDEF_STEREO_COUNT>
0

> <PUBCHEM_ISOTOPIC_ATOM_COUNT>
0

> <PUBCHEM_COMPONENT_COUNT>
1

> <PUBCHEM_CACTVS_TAUTO_COUNT>
2

> <PUBCHEM_COORDINATE_TYPE>
1
5
255

> <PUBCHEM_BONDANNOTATIONS>
10  13  8
10  14  8
13  15  8
14  16  8
15  17  8
16  17  8
7  10  3

> <DRUG_ID>
w150

> <DRUG_NAME>
Chlormezanone

$$$$
8708
  CDK     0927151942
null
 43 44  0  0  0  0  0  0  0  0999 V2000
    9.8744    0.8047    0.0000 S   0  0  0  0  0  0  0  0  0  0  0  0
    6.3301    1.0000    0.0000 O   0  0  0  0  0  0  0  0  0  0  0  0
    3.7320    0.5000    0.0000 N   0  0  0  0  0  0  0  0  0  0  0  0
   11.4580    0.0000    0.0000 N   0  0  0  0  0  0  0  0  0  0  0  0
    9.8744   -0.8047    0.0000 N   0  0  0  0  0  0  0  0  0  0  0  0
    4.5981    1.0000    0.0000 C   0  0  0  0  0  0  0  0  0  0  0  0
    2.8660    1.0000    0.0000 C   0  0  0  0  0  0  0  0  0  0  0  0
    3.7320   -0.5000    0.0000 C   0  0  0  0  0  0  0  0  0  0  0  0
    5.4641    0.5000    0.0000 C   0  0  0  0  0  0  0  0  0  0  0  0
    2.0000    0.5000    0.0000 C   0  0  0  0  0  0  0  0  0  0  0  0
    2.8660   -1.0000    0.0000 C   0  0  0  0  0  0  0  0  0  0  0  0
    7.1962    0.5000    0.0000 C   0  0  0  0  0  0  0  0  0  0  0  0
    8.9282    0.5000    0.0000 C   0  0  0  0  0  0  0  0  0  0  0  0
    8.9282   -0.5000    0.0000 C   0  0  0  0  0  0  0  0  0  0  0  0
    8.0622    1.0000    0.0000 C   0  0  0  0  0  0  0  0  0  0  0  0
    7.1962   -0.5000    0.0000 C   0  0  0  0  0  0  0  0  0  0  0  0
    8.0622   -1.0000    0.0000 C   0  0  0  0  0  0  0  0  0  0  0  0
   10.4580    0.0000    0.0000 C   0  0  0  0  0  0  0  0  0  0  0  0
   11.9580   -0.8660    0.0000 C   0  0  0  0  0  0  0  0  0  0  0  0
   11.9580    0.8660    0.0000 C   0  0  0  0  0  0  0  0  0  0  0  0
    4.9966    1.4750    0.0000 H   0  0  0  0  0  0  0  0  0  0  0  0
    4.1996    1.4750    0.0000 H   0  0  0  0  0  0  0  0  0  0  0  0
    3.2646    1.4750    0.0000 H   0  0  0  0  0  0  0  0  0  0  0  0
    2.4675    1.4750    0.0000 H   0  0  0  0  0  0  0  0  0  0  0  0
    3.9441   -1.0826    0.0000 H   0  0  0  0  0  0  0  0  0  0  0  0
    4.3426   -0.3923    0.0000 H   0  0  0  0  0  0  0  0  0  0  0  0
    5.0656    0.0251    0.0000 H   0  0  0  0  0  0  0  0  0  0  0  0
    5.8626    0.0251    0.0000 H   0  0  0  0  0  0  0  0  0  0  0  0
    1.6900    1.0369    0.0000 H   0  0  0  0  0  0  0  0  0  0  0  0
    1.4631    0.1900    0.0000 H   0  0  0  0  0  0  0  0  0  0  0  0
    2.3100   -0.0369    0.0000 H   0  0  0  0  0  0  0  0  0  0  0  0
    2.5560   -0.4631    0.0000 H   0  0  0  0  0  0  0  0  0  0  0  0
    2.3291   -1.3100    0.0000 H   0  0  0  0  0  0  0  0  0  0  0  0
    3.1760   -1.5369    0.0000 H   0  0  0  0  0  0  0  0  0  0  0  0
    8.0622    1.6200    0.0000 H   0  0  0  0  0  0  0  0  0  0  0  0
    6.6592   -0.8100    0.0000 H   0  0  0  0  0  0  0  0  0  0  0  0
    8.0622   -1.6200    0.0000 H   0  0  0  0  0  0  0  0  0  0  0  0
   11.4211   -1.1760    0.0000 H   0  0  0  0  0  0  0  0  0  0  0  0
   12.2680   -1.4030    0.0000 H   0  0  0  0  0  0  0  0  0  0  0  0
   12.4950   -0.5560    0.0000 H   0  0  0  0  0  0  0  0  0  0  0  0
   12.4950    0.5560    0.0000 H   0  0  0  0  0  0  0  0  0  0  0  0
   12.2680    1.4030    0.0000 H   0  0  0  0  0  0  0  0  0  0  0  0
   11.4211    1.1760    0.0000 H   0  0  0  0  0  0  0  0  0  0  0  0
  1 13  1  0  0  0  0 
  1 18  1  0  0  0  0 
  2  9  1  0  0  0  0 
  2 12  1  0  0  0  0 
  3  6  1  0  0  0  0 
  3  7  1  0  0  0  0 
  3  8  1  0  0  0  0 
  4 18  1  0  0  0  0 
  4 19  1  0  0  0  0 
  4 20  1  0  0  0  0 
  5 14  1  0  0  0  0 
  5 18  2  0  0  0  0 
  6  9  1  0  0  0  0 
  6 21  1  0  0  0  0 
  6 22  1  0  0  0  0 
  7 10  1  0  0  0  0 
  7 23  1  0  0  0  0 
  7 24  1  0  0  0  0 
  8 11  1  0  0  0  0 
  8 25  1  0  0  0  0 
  8 26  1  0  0  0  0 
  9 27  1  0  0  0  0 
  9 28  1  0  0  0  0 
 10 29  1  0  0  0  0 
 10 30  1  0  0  0  0 
 10 31  1  0  0  0  0 
 11 32  1  0  0  0  0 
 11 33  1  0  0  0  0 
 11 34  1  0  0  0  0 
 12 15  2  0  0  0  0 
 12 16  1  0  0  0  0 
 13 14  2  0  0  0  0 
 13 15  1  0  0  0  0 
 14 17  1  0  0  0  0 
 15 35  1  0  0  0  0 
 16 17  2  0  0  0  0 
 16 36  1  0  0  0  0 
 17 37  1  0  0  0  0 
 19 38  1  0  0  0  0 
 19 39  1  0  0  0  0 
 19 40  1  0  0  0  0 
 20 41  1  0  0  0  0 
 20 42  1  0  0  0  0 
 20 43  1  0  0  0  0 
M  END
> <cdk:Title>
8708

> <cdk:Remark>
null

> <PUBCHEM_COMPOUND_CID>
8708

> <PUBCHEM_COMPOUND_CANONICALIZED>
1

> <PUBCHEM_CACTVS_COMPLEXITY>
286

> <PUBCHEM_CACTVS_HBOND_ACCEPTOR>
5

> <PUBCHEM_CACTVS_HBOND_DONOR>
0

> <PUBCHEM_CACTVS_ROTATABLE_BOND>
7

> <PUBCHEM_CACTVS_SUBSKEYS>
AAADceBzIABAAAAAAAAAAAAAAAAAAWAAAAAwAAAAAAAAAFgB8AAAHgQAAAAACAzh1gYz17MIFAikASRiZACD+KlhKjhJmDw+bJiOJqLksZuHOCjswBPY6CewQAAAAEAABAAAAQAAgAAIAAACAAAAAAAAAA==

> <PUBCHEM_IUPAC_OPENEYE_NAME>
6-[2-(diethylamino)ethoxy]-N,N-dimethyl-1,3-benzothiazol-2-amine

> <PUBCHEM_IUPAC_CAS_NAME>
6-[2-(diethylamino)ethoxy]-N,N-dimethyl-1,3-benzothiazol-2-amine

> <PUBCHEM_IUPAC_NAME>
6-[2-(diethylamino)ethoxy]-N,N-dimethyl-1,3-benzothiazol-2-amine

> <PUBCHEM_IUPAC_SYSTEMATIC_NAME>
6-[2-(diethylamino)ethoxy]-N,N-dimethyl-1,3-benzothiazol-2-amine

> <PUBCHEM_IUPAC_TRADITIONAL_NAME>
[6-[2-(diethylamino)ethoxy]-1,3-benzothiazol-2-yl]-dimethyl-amine

> <PUBCHEM_IUPAC_INCHI>
InChI=1S/C15H23N3OS/c1-5-18(6-2)9-10-19-12-7-8-13-14(11-12)20-15(16-13)17(3)4/h7-8,11H,5-6,9-10H2,1-4H3

> <PUBCHEM_IUPAC_INCHIKEY>
WGMYEOIMVYADRJ-UHFFFAOYSA-N

> <PUBCHEM_XLOGP3>
4

> <PUBCHEM_EXACT_MASS>
293.156183

> <PUBCHEM_MOLECULAR_FORMULA>
C15H23N3OS

> <PUBCHEM_MOLECULAR_WEIGHT>
293.42762

> <PUBCHEM_OPENEYE_CAN_SMILES>
CCN(CC)CCOC1=CC2=C(C=C1)N=C(S2)N(C)C

> <PUBCHEM_OPENEYE_ISO_SMILES>
CCN(CC)CCOC1=CC2=C(C=C1)N=C(S2)N(C)C

> <PUBCHEM_CACTVS_TPSA>
56.8

> <PUBCHEM_MONOISOTOPIC_WEIGHT>
293.156183

> <PUBCHEM_TOTAL_CHARGE>
0

> <PUBCHEM_HEAVY_ATOM_COUNT>
20

> <PUBCHEM_ATOM_DEF_STEREO_COUNT>
0

> <PUBCHEM_ATOM_UDEF_STEREO_COUNT>
0

> <PUBCHEM_BOND_DEF_STEREO_COUNT>
0

> <PUBCHEM_BOND_UDEF_STEREO_COUNT>
0

> <PUBCHEM_ISOTOPIC_ATOM_COUNT>
0

> <PUBCHEM_COMPONENT_COUNT>
1

> <PUBCHEM_CACTVS_TAUTO_COUNT>
1

> <PUBCHEM_COORDINATE_TYPE>
1
5
255

> <PUBCHEM_BONDANNOTATIONS>
1  13  8
1  18  8
12  15  8
12  16  8
13  14  8
13  15  8
14  17  8
16  17  8
5  14  8
5  18  8

> <DRUG_ID>
w151

> <DRUG_NAME>
Diamthazole

$$$$
165124
  CDK     0927151942
null
 49 50  0  0  0  0  0  0  0  0999 V2000
    4.8100   -0.6340    0.0000 O   0  0  0  0  0  0  0  0  0  0  0  0
    2.3100    0.2321    0.0000 O   0  0  0  0  0  0  0  0  0  0  0  0
    4.8100    1.0981    0.0000 O   0  0  0  0  0  0  0  0  0  0  0  0
    6.8100   -2.3660    0.0000 N   0  0  0  0  0  0  0  0  0  0  0  0
    6.3100   -1.5000    0.0000 C   0  0  0  0  0  0  0  0  0  0  0  0
    5.8100   -0.6340    0.0000 C   0  0  0  0  0  0  0  0  0  0  0  0
    7.1760   -1.0000    0.0000 C   0  0  0  0  0  0  0  0  0  0  0  0
    5.4440   -2.0000    0.0000 C   0  0  0  0  0  0  0  0  0  0  0  0
    3.3100    0.2321    0.0000 C   0  0  0  0  0  0  0  0  0  0  0  0
    7.8100   -2.3660    0.0000 C   0  0  0  0  0  0  0  0  0  0  0  0
    6.3100   -3.2320    0.0000 C   0  0  0  0  0  0  0  0  0  0  0  0
    4.3100    0.2321    0.0000 C   0  0  0  0  0  0  0  0  0  0  0  0
    3.3100   -0.7679    0.0000 C   0  0  0  0  0  0  0  0  0  0  0  0
    3.3100    1.2320    0.0000 C   0  0  0  0  0  0  0  0  0  0  0  0
    4.1760    1.7320    0.0000 C   0  0  0  0  0  0  0  0  0  0  0  0
    2.4440   -1.2680    0.0000 C   0  0  0  0  0  0  0  0  0  0  0  0
    2.4440    1.7320    0.0000 C   0  0  0  0  0  0  0  0  0  0  0  0
    4.1760   -1.2680    0.0000 C   0  0  0  0  0  0  0  0  0  0  0  0
    4.1760    2.7320    0.0000 C   0  0  0  0  0  0  0  0  0  0  0  0
    2.4440   -2.2680    0.0000 C   0  0  0  0  0  0  0  0  0  0  0  0
    2.4440    2.7320    0.0000 C   0  0  0  0  0  0  0  0  0  0  0  0
    4.1760   -2.2680    0.0000 C   0  0  0  0  0  0  0  0  0  0  0  0
    3.3100    3.2320    0.0000 C   0  0  0  0  0  0  0  0  0  0  0  0
    3.3100   -2.7680    0.0000 C   0  0  0  0  0  0  0  0  0  0  0  0
    6.3926   -0.4219    0.0000 H   0  0  0  0  0  0  0  0  0  0  0  0
    5.7023   -0.0234    0.0000 H   0  0  0  0  0  0  0  0  0  0  0  0
    5.1340   -1.4631    0.0000 H   0  0  0  0  0  0  0  0  0  0  0  0
    4.9070   -2.3100    0.0000 H   0  0  0  0  0  0  0  0  0  0  0  0
    5.7540   -2.5369    0.0000 H   0  0  0  0  0  0  0  0  0  0  0  0
    7.4860   -1.5369    0.0000 H   0  0  0  0  0  0  0  0  0  0  0  0
    7.7130   -0.6900    0.0000 H   0  0  0  0  0  0  0  0  0  0  0  0
    6.8660   -0.4631    0.0000 H   0  0  0  0  0  0  0  0  0  0  0  0
    7.8100   -2.9860    0.0000 H   0  0  0  0  0  0  0  0  0  0  0  0
    8.4300   -2.3660    0.0000 H   0  0  0  0  0  0  0  0  0  0  0  0
    7.8100   -1.7460    0.0000 H   0  0  0  0  0  0  0  0  0  0  0  0
    5.7731   -2.9220    0.0000 H   0  0  0  0  0  0  0  0  0  0  0  0
    6.0000   -3.7690    0.0000 H   0  0  0  0  0  0  0  0  0  0  0  0
    6.8469   -3.5420    0.0000 H   0  0  0  0  0  0  0  0  0  0  0  0
    4.7130    1.4220    0.0000 H   0  0  0  0  0  0  0  0  0  0  0  0
    1.9070   -0.9579    0.0000 H   0  0  0  0  0  0  0  0  0  0  0  0
    1.9070    1.4220    0.0000 H   0  0  0  0  0  0  0  0  0  0  0  0
    4.7130   -0.9579    0.0000 H   0  0  0  0  0  0  0  0  0  0  0  0
    2.0000    0.7690    0.0000 H   0  0  0  0  0  0  0  0  0  0  0  0
    4.7130    3.0420    0.0000 H   0  0  0  0  0  0  0  0  0  0  0  0
    1.9070   -2.5780    0.0000 H   0  0  0  0  0  0  0  0  0  0  0  0
    1.9070    3.0420    0.0000 H   0  0  0  0  0  0  0  0  0  0  0  0
    4.7130   -2.5780    0.0000 H   0  0  0  0  0  0  0  0  0  0  0  0
    3.3100    3.8520    0.0000 H   0  0  0  0  0  0  0  0  0  0  0  0
    3.3100   -3.3880    0.0000 H   0  0  0  0  0  0  0  0  0  0  0  0
  1  6  1  0  0  0  0 
  1 12  1  0  0  0  0 
  2  9  1  0  0  0  0 
  2 43  1  0  0  0  0 
  3 12  2  0  0  0  0 
  4  5  1  0  0  0  0 
  4 10  1  0  0  0  0 
  4 11  1  0  0  0  0 
  5  6  1  0  0  0  0 
  5  7  1  0  0  0  0 
  5  8  1  0  0  0  0 
  6 25  1  0  0  0  0 
  6 26  1  0  0  0  0 
  7 30  1  0  0  0  0 
  7 31  1  0  0  0  0 
  7 32  1  0  0  0  0 
  8 27  1  0  0  0  0 
  8 28  1  0  0  0  0 
  8 29  1  0  0  0  0 
  9 12  1  0  0  0  0 
  9 13  1  0  0  0  0 
  9 14  1  0  0  0  0 
 10 33  1  0  0  0  0 
 10 34  1  0  0  0  0 
 10 35  1  0  0  0  0 
 11 36  1  0  0  0  0 
 11 37  1  0  0  0  0 
 11 38  1  0  0  0  0 
 13 16  2  0  0  0  0 
 13 18  1  0  0  0  0 
 14 15  2  0  0  0  0 
 14 17  1  0  0  0  0 
 15 19  1  0  0  0  0 
 15 39  1  0  0  0  0 
 16 20  1  0  0  0  0 
 16 40  1  0  0  0  0 
 17 21  2  0  0  0  0 
 17 41  1  0  0  0  0 
 18 22  2  0  0  0  0 
 18 42  1  0  0  0  0 
 19 23  2  0  0  0  0 
 19 44  1  0  0  0  0 
 20 24  2  0  0  0  0 
 20 45  1  0  0  0  0 
 21 23  1  0  0  0  0 
 21 46  1  0  0  0  0 
 22 24  1  0  0  0  0 
 22 47  1  0  0  0  0 
 23 48  1  0  0  0  0 
 24 49  1  0  0  0  0 
M  END
> <cdk:Title>
165124

> <cdk:Remark>
null

> <PUBCHEM_COMPOUND_CID>
165124

> <PUBCHEM_COMPOUND_CANONICALIZED>
1

> <PUBCHEM_CACTVS_COMPLEXITY>
389

> <PUBCHEM_CACTVS_HBOND_ACCEPTOR>
4

> <PUBCHEM_CACTVS_HBOND_DONOR>
1

> <PUBCHEM_CACTVS_ROTATABLE_BOND>
7

> <PUBCHEM_CACTVS_SUBSKEYS>
AAADceB6MAAAAAAAAAAAAAAAAAAAAAAAAAAwYAAAAAAAAAABQAAAHgAACAAADMyhmAYyCIMABgCIAiDSCAICAAAgAAAIiAFICIgLJjKAFRCDcAAkwAEbmAeIyOCOgAAAAAAAAAAAAAAAAAAAAAAAAAAAAA==

> <PUBCHEM_IUPAC_OPENEYE_NAME>
[2-(dimethylamino)-2-methyl-propyl] 2-hydroxy-2,2-diphenyl-acetate

> <PUBCHEM_IUPAC_CAS_NAME>
2-hydroxy-2,2-diphenylacetic acid [2-(dimethylamino)-2-methylpropyl] ester

> <PUBCHEM_IUPAC_NAME>
[2-(dimethylamino)-2-methylpropyl] 2-hydroxy-2,2-diphenylacetate

> <PUBCHEM_IUPAC_SYSTEMATIC_NAME>
[2-(dimethylamino)-2-methyl-propyl] 2-oxidanyl-2,2-diphenyl-ethanoate

> <PUBCHEM_IUPAC_TRADITIONAL_NAME>
2-hydroxy-2,2-diphenyl-acetic acid [2-(dimethylamino)-2-methyl-propyl] ester

> <PUBCHEM_IUPAC_INCHI>
InChI=1S/C20H25NO3/c1-19(2,21(3)4)15-24-18(22)20(23,16-11-7-5-8-12-16)17-13-9-6-10-14-17/h5-14,23H,15H2,1-4H3

> <PUBCHEM_IUPAC_INCHIKEY>
GUONSMXZEYTWML-UHFFFAOYSA-N

> <PUBCHEM_XLOGP3_AA>
3.3

> <PUBCHEM_EXACT_MASS>
327.183444

> <PUBCHEM_MOLECULAR_FORMULA>
C20H25NO3

> <PUBCHEM_MOLECULAR_WEIGHT>
327.4174

> <PUBCHEM_OPENEYE_CAN_SMILES>
CC(C)(COC(=O)C(C1=CC=CC=C1)(C2=CC=CC=C2)O)N(C)C

> <PUBCHEM_OPENEYE_ISO_SMILES>
CC(C)(COC(=O)C(C1=CC=CC=C1)(C2=CC=CC=C2)O)N(C)C

> <PUBCHEM_CACTVS_TPSA>
49.8

> <PUBCHEM_MONOISOTOPIC_WEIGHT>
327.183444

> <PUBCHEM_TOTAL_CHARGE>
0

> <PUBCHEM_HEAVY_ATOM_COUNT>
24

> <PUBCHEM_ATOM_DEF_STEREO_COUNT>
0

> <PUBCHEM_ATOM_UDEF_STEREO_COUNT>
0

> <PUBCHEM_BOND_DEF_STEREO_COUNT>
0

> <PUBCHEM_BOND_UDEF_STEREO_COUNT>
0

> <PUBCHEM_ISOTOPIC_ATOM_COUNT>
0

> <PUBCHEM_COMPONENT_COUNT>
1

> <PUBCHEM_CACTVS_TAUTO_COUNT>
1

> <PUBCHEM_COORDINATE_TYPE>
1
5
255

> <PUBCHEM_BONDANNOTATIONS>
13  16  8
13  18  8
14  15  8
14  17  8
15  19  8
16  20  8
17  21  8
18  22  8
19  23  8
20  24  8
21  23  8
22  24  8

> <DRUG_ID>
w152

> <DRUG_NAME>
Difemerine

$$$$
11033
  CDK     0927151942
null
 23 23  0  0  0  0  0  0  0  0999 V2000
    3.0000    0.7500    0.0000 S   0  0  0  0  0  0  0  0  0  0  0  0
    4.0000    0.7500    0.0000 O   0  0  0  0  0  0  0  0  0  0  0  0
    2.0000    0.7500    0.0000 O   0  0  0  0  0  0  0  0  0  0  0  0
    4.7320    1.7500    0.0000 O   0  0  0  0  0  0  0  0  0  0  0  0
    3.0000    1.7500    0.0000 N   0  0  0  0  0  0  0  0  0  0  0  0
    3.0000   -3.2500    0.0000 N   0  0  0  0  0  0  0  0  0  0  0  0
    3.8660    3.2500    0.0000 N   0  0  0  0  0  0  0  0  0  0  0  0
    3.0000   -0.2500    0.0000 C   0  0  0  0  0  0  0  0  0  0  0  0
    3.8660   -0.7500    0.0000 C   0  0  0  0  0  0  0  0  0  0  0  0
    2.1340   -0.7500    0.0000 C   0  0  0  0  0  0  0  0  0  0  0  0
    3.0000   -2.2500    0.0000 C   0  0  0  0  0  0  0  0  0  0  0  0
    3.8660   -1.7500    0.0000 C   0  0  0  0  0  0  0  0  0  0  0  0
    2.1340   -1.7500    0.0000 C   0  0  0  0  0  0  0  0  0  0  0  0
    3.8660    2.2500    0.0000 C   0  0  0  0  0  0  0  0  0  0  0  0
    4.4030   -0.4400    0.0000 H   0  0  0  0  0  0  0  0  0  0  0  0
    1.5970   -0.4400    0.0000 H   0  0  0  0  0  0  0  0  0  0  0  0
    4.4030   -2.0600    0.0000 H   0  0  0  0  0  0  0  0  0  0  0  0
    1.5970   -2.0600    0.0000 H   0  0  0  0  0  0  0  0  0  0  0  0
    2.4631    2.0600    0.0000 H   0  0  0  0  0  0  0  0  0  0  0  0
    2.4631   -3.5600    0.0000 H   0  0  0  0  0  0  0  0  0  0  0  0
    3.5369   -3.5600    0.0000 H   0  0  0  0  0  0  0  0  0  0  0  0
    4.4030    3.5600    0.0000 H   0  0  0  0  0  0  0  0  0  0  0  0
    3.3291    3.5600    0.0000 H   0  0  0  0  0  0  0  0  0  0  0  0
  1  2  2  0  0  0  0 
  1  3  2  0  0  0  0 
  1  5  1  0  0  0  0 
  1  8  1  0  0  0  0 
  4 14  2  0  0  0  0 
  5 14  1  0  0  0  0 
  5 19  1  0  0  0  0 
  6 11  1  0  0  0  0 
  6 20  1  0  0  0  0 
  6 21  1  0  0  0  0 
  7 14  1  0  0  0  0 
  7 22  1  0  0  0  0 
  7 23  1  0  0  0  0 
  8  9  2  0  0  0  0 
  8 10  1  0  0  0  0 
  9 12  1  0  0  0  0 
  9 15  1  0  0  0  0 
 10 13  2  0  0  0  0 
 10 16  1  0  0  0  0 
 11 12  2  0  0  0  0 
 11 13  1  0  0  0  0 
 12 17  1  0  0  0  0 
 13 18  1  0  0  0  0 
M  END
> <cdk:Title>
11033

> <cdk:Remark>
null

> <PUBCHEM_COMPOUND_CID>
11033

> <PUBCHEM_COMPOUND_CANONICALIZED>
1

> <PUBCHEM_CACTVS_COMPLEXITY>
301

> <PUBCHEM_CACTVS_HBOND_ACCEPTOR>
4

> <PUBCHEM_CACTVS_HBOND_DONOR>
3

> <PUBCHEM_CACTVS_ROTATABLE_BOND>
2

> <PUBCHEM_CACTVS_SUBSKEYS>
AAADccBjMABAAAAAAAAAAAAAAAAAAAAAAAAwAAAAAAAAAAABAAAAHgQQQAAACAiBUAAxwYBAAAKIACRCUHDCABAgAgAIiBgAZIgIICKAkZGAIABgkAAIyAcQAAAAAAQAAAAAAAAACAAAAAAAAAAAAAAAAA==

> <PUBCHEM_IUPAC_OPENEYE_NAME>
(4-aminophenyl)sulfonylurea

> <PUBCHEM_IUPAC_CAS_NAME>
(4-aminophenyl)sulfonylurea

> <PUBCHEM_IUPAC_NAME>
(4-aminophenyl)sulfonylurea

> <PUBCHEM_IUPAC_SYSTEMATIC_NAME>
1-(4-aminophenyl)sulfonylurea

> <PUBCHEM_IUPAC_TRADITIONAL_NAME>
sulfanilylurea

> <PUBCHEM_IUPAC_INCHI>
InChI=1S/C7H9N3O3S/c8-5-1-3-6(4-2-5)14(12,13)10-7(9)11/h1-4H,8H2,(H3,9,10,11)

> <PUBCHEM_IUPAC_INCHIKEY>
WVAKABMNNSMCDK-UHFFFAOYSA-N

> <PUBCHEM_XLOGP3>
-1.5

> <PUBCHEM_EXACT_MASS>
215.036462

> <PUBCHEM_MOLECULAR_FORMULA>
C7H9N3O3S

> <PUBCHEM_MOLECULAR_WEIGHT>
215.22966

> <PUBCHEM_OPENEYE_CAN_SMILES>
C1=CC(=CC=C1N)S(=O)(=O)NC(=O)N

> <PUBCHEM_OPENEYE_ISO_SMILES>
C1=CC(=CC=C1N)S(=O)(=O)NC(=O)N

> <PUBCHEM_CACTVS_TPSA>
124

> <PUBCHEM_MONOISOTOPIC_WEIGHT>
215.036462

> <PUBCHEM_TOTAL_CHARGE>
0

> <PUBCHEM_HEAVY_ATOM_COUNT>
14

> <PUBCHEM_ATOM_DEF_STEREO_COUNT>
0

> <PUBCHEM_ATOM_UDEF_STEREO_COUNT>
0

> <PUBCHEM_BOND_DEF_STEREO_COUNT>
0

> <PUBCHEM_BOND_UDEF_STEREO_COUNT>
0

> <PUBCHEM_ISOTOPIC_ATOM_COUNT>
0

> <PUBCHEM_COMPONENT_COUNT>
1

> <PUBCHEM_CACTVS_TAUTO_COUNT>
6

> <PUBCHEM_COORDINATE_TYPE>
1
5
255

> <PUBCHEM_BONDANNOTATIONS>
10  13  8
11  12  8
11  13  8
5  14  1
8  10  8
8  9  8
9  12  8

> <DRUG_ID>
w153

> <DRUG_NAME>
Sulfacarbamide

$$$$
62959
  CDK     0927151942
null
 45 49  0  0  0  0  0  0  0  0999 V2000
    8.6651    2.5242    0.0000 F   0  0  0  0  0  0  0  0  0  0  0  0
    3.4030   -0.5000    0.0000 F   0  0  0  0  0  0  0  0  0  0  0  0
    5.1350   -3.5000    0.0000 F   0  0  0  0  0  0  0  0  0  0  0  0
    5.1350    3.5000    0.0000 O   0  0  0  0  0  0  0  0  0  0  0  0
    2.5369    2.0000    0.0000 O   0  0  0  0  0  0  0  0  0  0  0  0
    3.4030    3.5000    0.0000 O   0  0  0  0  0  0  0  0  0  0  0  0
    8.6651    0.4758    0.0000 N   0  0  0  0  0  0  0  0  0  0  0  0
   11.6077   -1.2382    0.0000 N   0  0  0  0  0  0  0  0  0  0  0  0
    6.8950    0.4653    0.0000 N   0  0  0  0  0  0  0  0  0  0  0  0
    5.1350    0.5000    0.0000 N   0  0  0  0  0  0  0  0  0  0  0  0
    9.7432   -0.7307    0.0000 C   0  0  2  0  0  0  0  0  0  0  0  0
   10.2465    0.1333    0.0000 C   0  0  1  0  0  0  0  0  0  0  0  0
   10.7436   -0.7349    0.0000 C   0  0  0  0  0  0  0  0  0  0  0  0
    8.7658   -0.5191    0.0000 C   0  0  0  0  0  0  0  0  0  0  0  0
    9.5802    0.8791    0.0000 C   0  0  0  0  0  0  0  0  0  0  0  0
    7.8010    0.9792    0.0000 C   0  0  0  0  0  0  0  0  0  0  0  0
    7.8010    2.0208    0.0000 C   0  0  0  0  0  0  0  0  0  0  0  0
    6.0010    1.0000    0.0000 C   0  0  0  0  0  0  0  0  0  0  0  0
    6.8950    2.5347    0.0000 C   0  0  0  0  0  0  0  0  0  0  0  0
    6.0010    2.0000    0.0000 C   0  0  0  0  0  0  0  0  0  0  0  0
    5.1350    2.5000    0.0000 C   0  0  0  0  0  0  0  0  0  0  0  0
    4.2690    1.0000    0.0000 C   0  0  0  0  0  0  0  0  0  0  0  0
    4.2690    2.0000    0.0000 C   0  0  0  0  0  0  0  0  0  0  0  0
    5.1350   -0.5000    0.0000 C   0  0  0  0  0  0  0  0  0  0  0  0
    4.2690   -1.0000    0.0000 C   0  0  0  0  0  0  0  0  0  0  0  0
    6.0010   -1.0000    0.0000 C   0  0  0  0  0  0  0  0  0  0  0  0
    3.4030    2.5000    0.0000 C   0  0  0  0  0  0  0  0  0  0  0  0
    4.2690   -2.0000    0.0000 C   0  0  0  0  0  0  0  0  0  0  0  0
    6.0010   -2.0000    0.0000 C   0  0  0  0  0  0  0  0  0  0  0  0
    5.1350   -2.5000    0.0000 C   0  0  0  0  0  0  0  0  0  0  0  0
    9.6510   -1.5757    0.0000 H   0  0  0  0  0  0  0  0  0  0  0  0
   10.9360    0.6304    0.0000 H   0  0  0  0  0  0  0  0  0  0  0  0
   10.5808   -1.3331    0.0000 H   0  0  0  0  0  0  0  0  0  0  0  0
   10.0832    1.2416    0.0000 H   0  0  0  0  0  0  0  0  0  0  0  0
    9.2723    1.4172    0.0000 H   0  0  0  0  0  0  0  0  0  0  0  0
    8.1458   -0.5167    0.0000 H   0  0  0  0  0  0  0  0  0  0  0  0
    8.6986   -1.1354    0.0000 H   0  0  0  0  0  0  0  0  0  0  0  0
   12.1458   -0.9303    0.0000 H   0  0  0  0  0  0  0  0  0  0  0  0
   11.6053   -1.8582    0.0000 H   0  0  0  0  0  0  0  0  0  0  0  0
    6.8878    3.1546    0.0000 H   0  0  0  0  0  0  0  0  0  0  0  0
    3.7320    0.6900    0.0000 H   0  0  0  0  0  0  0  0  0  0  0  0
    6.5380   -0.6900    0.0000 H   0  0  0  0  0  0  0  0  0  0  0  0
    3.7320   -2.3100    0.0000 H   0  0  0  0  0  0  0  0  0  0  0  0
    6.5380   -2.3100    0.0000 H   0  0  0  0  0  0  0  0  0  0  0  0
    2.0000    2.3100    0.0000 H   0  0  0  0  0  0  0  0  0  0  0  0
  1 17  1  0  0  0  0 
  2 25  1  0  0  0  0 
  3 30  1  0  0  0  0 
  4 21  2  0  0  0  0 
  5 27  1  0  0  0  0 
  5 45  1  0  0  0  0 
  6 27  2  0  0  0  0 
  7 14  1  0  0  0  0 
  7 15  1  0  0  0  0 
  7 16  1  0  0  0  0 
  8 13  1  0  0  0  0 
  8 38  1  0  0  0  0 
  8 39  1  0  0  0  0 
  9 16  1  0  0  0  0 
  9 18  2  0  0  0  0 
 10 18  1  0  0  0  0 
 10 22  1  0  0  0  0 
 10 24  1  0  0  0  0 
 11 12  1  0  0  0  0 
 11 13  1  0  0  0  0 
 11 14  1  0  0  0  0 
 11 31  1  1  0  0  0 
 12 13  1  0  0  0  0 
 12 15  1  0  0  0  0 
 12 32  1  1  0  0  0 
 13 33  1  0  0  0  0 
 14 36  1  0  0  0  0 
 14 37  1  0  0  0  0 
 15 34  1  0  0  0  0 
 15 35  1  0  0  0  0 
 16 17  2  0  0  0  0 
 17 19  1  0  0  0  0 
 18 20  1  0  0  0  0 
 19 20  2  0  0  0  0 
 19 40  1  0  0  0  0 
 20 21  1  0  0  0  0 
 21 23  1  0  0  0  0 
 22 23  2  0  0  0  0 
 22 41  1  0  0  0  0 
 23 27  1  0  0  0  0 
 24 25  2  0  0  0  0 
 24 26  1  0  0  0  0 
 25 28  1  0  0  0  0 
 26 29  2  0  0  0  0 
 26 42  1  0  0  0  0 
 28 30  2  0  0  0  0 
 28 43  1  0  0  0  0 
 29 30  1  0  0  0  0 
 29 44  1  0  0  0  0 
M  END
> <cdk:Title>
62959

> <cdk:Remark>
null

> <PUBCHEM_COMPOUND_CID>
62959

> <PUBCHEM_COMPOUND_CANONICALIZED>
1

> <PUBCHEM_CACTVS_COMPLEXITY>
770

> <PUBCHEM_CACTVS_HBOND_ACCEPTOR>
10

> <PUBCHEM_CACTVS_HBOND_DONOR>
2

> <PUBCHEM_CACTVS_ROTATABLE_BOND>
3

> <PUBCHEM_CACTVS_SUBSKEYS>
AAADccB7sYAAAAAAAAAAAAAAGAAAAWAAAAA8WIEAAAAAAACBwAAAHwAQCAAADSzBmgwx+JNIEgCoAqb2bACCgCklAiAJmKEoZNiIJP7I3ZGEYYhssALI2eeY2SKOAAAAAAAAAAAAAAAAAAAAAAAAAAAAAA==

> <PUBCHEM_IUPAC_OPENEYE_NAME>
7-[(1R,5S)-6-amino-3-azabicyclo[3.1.0]hexan-3-yl]-1-(2,4-difluorophenyl)-6-fluoro-4-oxo-1,8-naphthyridine-3-carboxylic acid

> <PUBCHEM_IUPAC_CAS_NAME>
7-[(1R,5S)-6-amino-3-azabicyclo[3.1.0]hexan-3-yl]-1-(2,4-difluorophenyl)-6-fluoro-4-oxo-1,8-naphthyridine-3-carboxylic acid

> <PUBCHEM_IUPAC_NAME>
7-[(1R,5S)-6-amino-3-azabicyclo[3.1.0]hexan-3-yl]-1-(2,4-difluorophenyl)-6-fluoro-4-oxo-1,8-naphthyridine-3-carboxylic acid

> <PUBCHEM_IUPAC_SYSTEMATIC_NAME>
7-[(1R,5S)-6-azanyl-3-azabicyclo[3.1.0]hexan-3-yl]-1-[2,4-bis(fluoranyl)phenyl]-6-fluoranyl-4-oxidanylidene-1,8-naphthyridine-3-carboxylic acid

> <PUBCHEM_IUPAC_TRADITIONAL_NAME>
7-[(1R,5S)-6-amino-3-azabicyclo[3.1.0]hexan-3-yl]-1-(2,4-difluorophenyl)-6-fluoro-4-keto-1,8-naphthyridine-3-carboxylic acid

> <PUBCHEM_IUPAC_INCHI>
InChI=1S/C20H15F3N4O3/c21-8-1-2-15(13(22)3-8)27-7-12(20(29)30)17(28)9-4-14(23)19(25-18(9)27)26-5-10-11(6-26)16(10)24/h1-4,7,10-11,16H,5-6,24H2,(H,29,30)/t10-,11+,16?

> <PUBCHEM_IUPAC_INCHIKEY>
WVPSKSLAZQPAKQ-SOSAQKQKSA-N

> <PUBCHEM_XLOGP3>
0.3

> <PUBCHEM_EXACT_MASS>
416.109625

> <PUBCHEM_MOLECULAR_FORMULA>
C20H15F3N4O3

> <PUBCHEM_MOLECULAR_WEIGHT>
416.35331

> <PUBCHEM_OPENEYE_CAN_SMILES>
C1C2C(C2N)CN1C3=C(C=C4C(=O)C(=CN(C4=N3)C5=C(C=C(C=C5)F)F)C(=O)O)F

> <PUBCHEM_OPENEYE_ISO_SMILES>
C1[C@@H]2[C@@H](C2N)CN1C3=C(C=C4C(=O)C(=CN(C4=N3)C5=C(C=C(C=C5)F)F)C(=O)O)F

> <PUBCHEM_CACTVS_TPSA>
99.8

> <PUBCHEM_MONOISOTOPIC_WEIGHT>
416.109625

> <PUBCHEM_TOTAL_CHARGE>
0

> <PUBCHEM_HEAVY_ATOM_COUNT>
30

> <PUBCHEM_ATOM_DEF_STEREO_COUNT>
2

> <PUBCHEM_ATOM_UDEF_STEREO_COUNT>
0

> <PUBCHEM_BOND_DEF_STEREO_COUNT>
0

> <PUBCHEM_BOND_UDEF_STEREO_COUNT>
0

> <PUBCHEM_ISOTOPIC_ATOM_COUNT>
0

> <PUBCHEM_COMPONENT_COUNT>
1

> <PUBCHEM_CACTVS_TAUTO_COUNT>
1

> <PUBCHEM_COORDINATE_TYPE>
1
5
255

> <PUBCHEM_BONDANNOTATIONS>
10  18  8
10  22  8
11  31  5
12  32  5
16  17  8
17  19  8
18  20  8
19  20  8
20  21  8
21  23  8
22  23  8
24  25  8
24  26  8
25  28  8
26  29  8
28  30  8
29  30  8
9  16  8
9  18  8

> <DRUG_ID>
w154

> <DRUG_NAME>
Trovafloxacin

$$$$
22308
  CDK     0927151942
null
 57 58  0  0  0  0  0  0  0  0999 V2000
    7.1454   -0.8660    0.0000 O   0  0  0  0  0  0  0  0  0  0  0  0
    8.6454    0.0000    0.0000 O   0  0  0  0  0  0  0  0  0  0  0  0
    2.9397   -0.3008    0.0000 N   0  0  0  0  0  0  0  0  0  0  0  0
    5.6454    0.0000    0.0000 C   0  0  0  0  0  0  0  0  0  0  0  0
    4.6454    0.0000    0.0000 C   0  0  0  0  0  0  0  0  0  0  0  0
    6.6454    0.0000    0.0000 C   0  0  1  0  0  0  0  0  0  0  0  0
    3.7057    0.3420    0.0000 C   0  0  1  0  0  0  0  0  0  0  0  0
    5.6454   -1.0000    0.0000 C   0  0  0  0  0  0  0  0  0  0  0  0
    5.6454    1.0000    0.0000 C   0  0  0  0  0  0  0  0  0  0  0  0
    7.1454    0.8660    0.0000 C   0  0  0  0  0  0  0  0  0  0  0  0
    3.5321    1.3268    0.0000 C   0  0  0  0  0  0  0  0  0  0  0  0
    4.7794    1.5000    0.0000 C   0  0  0  0  0  0  0  0  0  0  0  0
    6.5115   -1.5000    0.0000 C   0  0  0  0  0  0  0  0  0  0  0  0
    6.5115    1.5000    0.0000 C   0  0  0  0  0  0  0  0  0  0  0  0
    4.7794   -1.5000    0.0000 C   0  0  0  0  0  0  0  0  0  0  0  0
    8.1454    0.8660    0.0000 C   0  0  0  0  0  0  0  0  0  0  0  0
    2.0000    0.0413    0.0000 C   0  0  0  0  0  0  0  0  0  0  0  0
    3.1133   -1.2855    0.0000 C   0  0  0  0  0  0  0  0  0  0  0  0
    4.7794    2.5000    0.0000 C   0  0  0  0  0  0  0  0  0  0  0  0
    6.5115   -2.5000    0.0000 C   0  0  0  0  0  0  0  0  0  0  0  0
    6.5115    2.5000    0.0000 C   0  0  0  0  0  0  0  0  0  0  0  0
    4.7794   -2.5000    0.0000 C   0  0  0  0  0  0  0  0  0  0  0  0
    8.1454   -0.8660    0.0000 C   0  0  0  0  0  0  0  0  0  0  0  0
    5.6454    3.0000    0.0000 C   0  0  0  0  0  0  0  0  0  0  0  0
    5.6454   -3.0000    0.0000 C   0  0  0  0  0  0  0  0  0  0  0  0
    8.6454   -1.7320    0.0000 C   0  0  0  0  0  0  0  0  0  0  0  0
    4.2200   -0.4510    0.0000 H   0  0  0  0  0  0  0  0  0  0  0  0
    4.7531    0.6106    0.0000 H   0  0  0  0  0  0  0  0  0  0  0  0
    6.3354   -0.5369    0.0000 H   0  0  0  0  0  0  0  0  0  0  0  0
    3.1231    0.5541    0.0000 H   0  0  0  0  0  0  0  0  0  0  0  0
    7.2531    1.4766    0.0000 H   0  0  0  0  0  0  0  0  0  0  0  0
    6.5628    1.0781    0.0000 H   0  0  0  0  0  0  0  0  0  0  0  0
    4.1427    1.4345    0.0000 H   0  0  0  0  0  0  0  0  0  0  0  0
    3.4244    1.9374    0.0000 H   0  0  0  0  0  0  0  0  0  0  0  0
    2.9215    1.2192    0.0000 H   0  0  0  0  0  0  0  0  0  0  0  0
    4.2425    1.1900    0.0000 H   0  0  0  0  0  0  0  0  0  0  0  0
    7.0484   -1.1900    0.0000 H   0  0  0  0  0  0  0  0  0  0  0  0
    7.0484    1.1900    0.0000 H   0  0  0  0  0  0  0  0  0  0  0  0
    4.2425   -1.1900    0.0000 H   0  0  0  0  0  0  0  0  0  0  0  0
    8.1454    0.2460    0.0000 H   0  0  0  0  0  0  0  0  0  0  0  0
    8.7654    0.8660    0.0000 H   0  0  0  0  0  0  0  0  0  0  0  0
    8.1454    1.4860    0.0000 H   0  0  0  0  0  0  0  0  0  0  0  0
    2.2120    0.6239    0.0000 H   0  0  0  0  0  0  0  0  0  0  0  0
    1.4174    0.2533    0.0000 H   0  0  0  0  0  0  0  0  0  0  0  0
    1.7880   -0.5414    0.0000 H   0  0  0  0  0  0  0  0  0  0  0  0
    2.5027   -1.3931    0.0000 H   0  0  0  0  0  0  0  0  0  0  0  0
    3.2209   -1.8961    0.0000 H   0  0  0  0  0  0  0  0  0  0  0  0
    3.7239   -1.1779    0.0000 H   0  0  0  0  0  0  0  0  0  0  0  0
    4.2425    2.8100    0.0000 H   0  0  0  0  0  0  0  0  0  0  0  0
    7.0484   -2.8100    0.0000 H   0  0  0  0  0  0  0  0  0  0  0  0
    7.0484    2.8100    0.0000 H   0  0  0  0  0  0  0  0  0  0  0  0
    4.2425   -2.8100    0.0000 H   0  0  0  0  0  0  0  0  0  0  0  0
    5.6454    3.6200    0.0000 H   0  0  0  0  0  0  0  0  0  0  0  0
    5.6454   -3.6200    0.0000 H   0  0  0  0  0  0  0  0  0  0  0  0
    8.1085   -2.0420    0.0000 H   0  0  0  0  0  0  0  0  0  0  0  0
    8.9554   -2.2690    0.0000 H   0  0  0  0  0  0  0  0  0  0  0  0
    9.1824   -1.4220    0.0000 H   0  0  0  0  0  0  0  0  0  0  0  0
  6  1  1  1  0  0  0 
  1 23  1  0  0  0  0 
  2 23  2  0  0  0  0 
  7  3  1  6  0  0  0 
  3 17  1  0  0  0  0 
  3 18  1  0  0  0  0 
  4  5  1  0  0  0  0 
  4  6  1  0  0  0  0 
  4  8  1  0  0  0  0 
  4  9  1  0  0  0  0 
  5  7  1  0  0  0  0 
  5 27  1  0  0  0  0 
  5 28  1  0  0  0  0 
  6 10  1  0  0  0  0 
  6 29  1  0  0  0  0 
  7 11  1  0  0  0  0 
  7 30  1  0  0  0  0 
  8 13  2  0  0  0  0 
  8 15  1  0  0  0  0 
  9 12  2  0  0  0  0 
  9 14  1  0  0  0  0 
 10 16  1  0  0  0  0 
 10 31  1  0  0  0  0 
 10 32  1  0  0  0  0 
 11 33  1  0  0  0  0 
 11 34  1  0  0  0  0 
 11 35  1  0  0  0  0 
 12 19  1  0  0  0  0 
 12 36  1  0  0  0  0 
 13 20  1  0  0  0  0 
 13 37  1  0  0  0  0 
 14 21  2  0  0  0  0 
 14 38  1  0  0  0  0 
 15 22  2  0  0  0  0 
 15 39  1  0  0  0  0 
 16 40  1  0  0  0  0 
 16 41  1  0  0  0  0 
 16 42  1  0  0  0  0 
 17 43  1  0  0  0  0 
 17 44  1  0  0  0  0 
 17 45  1  0  0  0  0 
 18 46  1  0  0  0  0 
 18 47  1  0  0  0  0 
 18 48  1  0  0  0  0 
 19 24  2  0  0  0  0 
 19 49  1  0  0  0  0 
 20 25  2  0  0  0  0 
 20 50  1  0  0  0  0 
 21 24  1  0  0  0  0 
 21 51  1  0  0  0  0 
 22 25  1  0  0  0  0 
 22 52  1  0  0  0  0 
 23 26  1  0  0  0  0 
 24 53  1  0  0  0  0 
 25 54  1  0  0  0  0 
 26 55  1  0  0  0  0 
 26 56  1  0  0  0  0 
 26 57  1  0  0  0  0 
M  END
> <cdk:Title>
22308

> <cdk:Remark>
null

> <PUBCHEM_COMPOUND_CID>
22308

> <PUBCHEM_COMPOUND_CANONICALIZED>
1

> <PUBCHEM_CACTVS_COMPLEXITY>
404

> <PUBCHEM_CACTVS_HBOND_ACCEPTOR>
3

> <PUBCHEM_CACTVS_HBOND_DONOR>
0

> <PUBCHEM_CACTVS_ROTATABLE_BOND>
9

> <PUBCHEM_CACTVS_SUBSKEYS>
AAADceB6MAAAAAAAAAAAAAAAAAAAAAAAAAAwYAAAAAAAAAABQAAAHgAAAAAADjzhmAYyCIMABACIAiDSCAACAAAgAAAIiAAIAIgIICKAkRCGIAAkwAEIiAewwOAPgAAAAAAAAAAAAAAAAAAAAAAAAAAAAA==

> <PUBCHEM_IUPAC_OPENEYE_NAME>
[(1R,4R)-4-(dimethylamino)-1-ethyl-2,2-diphenyl-pentyl] acetate

> <PUBCHEM_IUPAC_CAS_NAME>
acetic acid [(3R,6R)-6-(dimethylamino)-4,4-diphenylheptan-3-yl] ester

> <PUBCHEM_IUPAC_NAME>
[(3R,6R)-6-(dimethylamino)-4,4-diphenylheptan-3-yl] acetate

> <PUBCHEM_IUPAC_SYSTEMATIC_NAME>
[(3R,6R)-6-(dimethylamino)-4,4-diphenyl-heptan-3-yl] ethanoate

> <PUBCHEM_IUPAC_TRADITIONAL_NAME>
acetic acid [(1R,4R)-4-(dimethylamino)-1-ethyl-2,2-diphenyl-pentyl] ester

> <PUBCHEM_IUPAC_INCHI>
InChI=1S/C23H31NO2/c1-6-22(26-19(3)25)23(17-18(2)24(4)5,20-13-9-7-10-14-20)21-15-11-8-12-16-21/h7-16,18,22H,6,17H2,1-5H3/t18-,22-/m1/s1

> <PUBCHEM_IUPAC_INCHIKEY>
XBMIVRRWGCYBTQ-XMSQKQJNSA-N

> <PUBCHEM_XLOGP3>
4.3

> <PUBCHEM_EXACT_MASS>
353.235479

> <PUBCHEM_MOLECULAR_FORMULA>
C23H31NO2

> <PUBCHEM_MOLECULAR_WEIGHT>
353.49774

> <PUBCHEM_OPENEYE_CAN_SMILES>
CCC(C(CC(C)N(C)C)(C1=CC=CC=C1)C2=CC=CC=C2)OC(=O)C

> <PUBCHEM_OPENEYE_ISO_SMILES>
CC[C@H](C(C[C@@H](C)N(C)C)(C1=CC=CC=C1)C2=CC=CC=C2)OC(=O)C

> <PUBCHEM_CACTVS_TPSA>
29.5

> <PUBCHEM_MONOISOTOPIC_WEIGHT>
353.235479

> <PUBCHEM_TOTAL_CHARGE>
0

> <PUBCHEM_HEAVY_ATOM_COUNT>
26

> <PUBCHEM_ATOM_DEF_STEREO_COUNT>
2

> <PUBCHEM_ATOM_UDEF_STEREO_COUNT>
0

> <PUBCHEM_BOND_DEF_STEREO_COUNT>
0

> <PUBCHEM_BOND_UDEF_STEREO_COUNT>
0

> <PUBCHEM_ISOTOPIC_ATOM_COUNT>
0

> <PUBCHEM_COMPONENT_COUNT>
1

> <PUBCHEM_CACTVS_TAUTO_COUNT>
1

> <PUBCHEM_COORDINATE_TYPE>
1
5
255

> <PUBCHEM_BONDANNOTATIONS>
6  1  5
12  19  8
13  20  8
14  21  8
15  22  8
19  24  8
20  25  8
21  24  8
22  25  8
7  3  6
8  13  8
8  15  8
9  12  8
9  14  8

> <DRUG_ID>
w155

> <DRUG_NAME>
Alphacetylmethadol

$$$$
40399
  CDK     0927151942
null
 30 31  0  0  0  0  0  0  0  0999 V2000
    2.5369   -0.5000    0.0000 O   0  0  0  0  0  0  0  0  0  0  0  0
    3.4030    1.0000    0.0000 O   0  0  0  0  0  0  0  0  0  0  0  0
    2.5369   -2.5000    0.0000 O   0  0  0  0  0  0  0  0  0  0  0  0
    6.0010    3.5000    0.0000 O   0  0  0  0  0  0  0  0  0  0  0  0
    7.7331    0.5000    0.0000 O   0  0  0  0  0  0  0  0  0  0  0  0
    7.7331    2.5000    0.0000 O   0  0  0  0  0  0  0  0  0  0  0  0
    4.2690   -3.5000    0.0000 O   0  0  0  0  0  0  0  0  0  0  0  0
    4.2690   -0.5000    0.0000 C   0  0  0  0  0  0  0  0  0  0  0  0
    5.1350    1.0000    0.0000 C   0  0  0  0  0  0  0  0  0  0  0  0
    4.2690    0.5000    0.0000 C   0  0  0  0  0  0  0  0  0  0  0  0
    3.4030   -1.0000    0.0000 C   0  0  0  0  0  0  0  0  0  0  0  0
    6.0010    0.5000    0.0000 C   0  0  0  0  0  0  0  0  0  0  0  0
    5.1350    2.0000    0.0000 C   0  0  0  0  0  0  0  0  0  0  0  0
    5.1350   -1.0000    0.0000 C   0  0  0  0  0  0  0  0  0  0  0  0
    3.4030   -2.0000    0.0000 C   0  0  0  0  0  0  0  0  0  0  0  0
    6.0010    2.5000    0.0000 C   0  0  0  0  0  0  0  0  0  0  0  0
    6.8671    1.0000    0.0000 C   0  0  0  0  0  0  0  0  0  0  0  0
    6.8671    2.0000    0.0000 C   0  0  0  0  0  0  0  0  0  0  0  0
    5.1350   -2.0000    0.0000 C   0  0  0  0  0  0  0  0  0  0  0  0
    4.2690   -2.5000    0.0000 C   0  0  0  0  0  0  0  0  0  0  0  0
    6.0010   -0.1200    0.0000 H   0  0  0  0  0  0  0  0  0  0  0  0
    4.5981    2.3100    0.0000 H   0  0  0  0  0  0  0  0  0  0  0  0
    5.6720   -0.6900    0.0000 H   0  0  0  0  0  0  0  0  0  0  0  0
    5.6720   -2.3100    0.0000 H   0  0  0  0  0  0  0  0  0  0  0  0
    2.0000   -0.8100    0.0000 H   0  0  0  0  0  0  0  0  0  0  0  0
    2.5369   -3.1200    0.0000 H   0  0  0  0  0  0  0  0  0  0  0  0
    5.4641    3.8100    0.0000 H   0  0  0  0  0  0  0  0  0  0  0  0
    8.2700    0.8100    0.0000 H   0  0  0  0  0  0  0  0  0  0  0  0
    7.7331    3.1200    0.0000 H   0  0  0  0  0  0  0  0  0  0  0  0
    4.8059   -3.8100    0.0000 H   0  0  0  0  0  0  0  0  0  0  0  0
  1 11  1  0  0  0  0 
  1 25  1  0  0  0  0 
  2 10  2  0  0  0  0 
  3 15  1  0  0  0  0 
  3 26  1  0  0  0  0 
  4 16  1  0  0  0  0 
  4 27  1  0  0  0  0 
  5 17  1  0  0  0  0 
  5 28  1  0  0  0  0 
  6 18  1  0  0  0  0 
  6 29  1  0  0  0  0 
  7 20  1  0  0  0  0 
  7 30  1  0  0  0  0 
  8 10  1  0  0  0  0 
  8 11  2  0  0  0  0 
  8 14  1  0  0  0  0 
  9 10  1  0  0  0  0 
  9 12  2  0  0  0  0 
  9 13  1  0  0  0  0 
 11 15  1  0  0  0  0 
 12 17  1  0  0  0  0 
 12 21  1  0  0  0  0 
 13 16  2  0  0  0  0 
 13 22  1  0  0  0  0 
 14 19  2  0  0  0  0 
 14 23  1  0  0  0  0 
 15 20  2  0  0  0  0 
 16 18  1  0  0  0  0 
 17 18  2  0  0  0  0 
 19 20  1  0  0  0  0 
 19 24  1  0  0  0  0 
M  END
> <cdk:Title>
40399

> <cdk:Remark>
null

> <PUBCHEM_COMPOUND_CID>
40399

> <PUBCHEM_COMPOUND_CANONICALIZED>
1

> <PUBCHEM_CACTVS_COMPLEXITY>
349

> <PUBCHEM_CACTVS_HBOND_ACCEPTOR>
7

> <PUBCHEM_CACTVS_HBOND_DONOR>
6

> <PUBCHEM_CACTVS_ROTATABLE_BOND>
2

> <PUBCHEM_CACTVS_SUBSKEYS>
AAADccBwOAAAAAAAAAAAAAAAAAAAAAAAAAAwYAAAAAAAAAABQAAAGgAACAAADASAmAAwBoAAAgCIAqBSAAACAAAkIAAIiAEGiMgJJzaCFRKAcUEl4BUJmYeK7PTOIAABCAAIQABAAAIQABCAAAAAAAAAAA==

> <PUBCHEM_IUPAC_OPENEYE_NAME>
(2,3,4-trihydroxyphenyl)-(3,4,5-trihydroxyphenyl)methanone

> <PUBCHEM_IUPAC_CAS_NAME>
(2,3,4-trihydroxyphenyl)-(3,4,5-trihydroxyphenyl)methanone

> <PUBCHEM_IUPAC_NAME>
(2,3,4-trihydroxyphenyl)-(3,4,5-trihydroxyphenyl)methanone

> <PUBCHEM_IUPAC_SYSTEMATIC_NAME>
[2,3,4-tris(oxidanyl)phenyl]-[3,4,5-tris(oxidanyl)phenyl]methanone

> <PUBCHEM_IUPAC_TRADITIONAL_NAME>
(2,3,4-trihydroxyphenyl)-(3,4,5-trihydroxyphenyl)methanone

> <PUBCHEM_IUPAC_INCHI>
InChI=1S/C13H10O7/c14-7-2-1-6(11(18)13(7)20)10(17)5-3-8(15)12(19)9(16)4-5/h1-4,14-16,18-20H

> <PUBCHEM_IUPAC_INCHIKEY>
XEDWWPGWIXPVRQ-UHFFFAOYSA-N

> <PUBCHEM_XLOGP3_AA>
1.7

> <PUBCHEM_EXACT_MASS>
278.042653

> <PUBCHEM_MOLECULAR_FORMULA>
C13H10O7

> <PUBCHEM_MOLECULAR_WEIGHT>
278.2143

> <PUBCHEM_OPENEYE_CAN_SMILES>
C1=CC(=C(C(=C1C(=O)C2=CC(=C(C(=C2)O)O)O)O)O)O

> <PUBCHEM_OPENEYE_ISO_SMILES>
C1=CC(=C(C(=C1C(=O)C2=CC(=C(C(=C2)O)O)O)O)O)O

> <PUBCHEM_CACTVS_TPSA>
138

> <PUBCHEM_MONOISOTOPIC_WEIGHT>
278.042653

> <PUBCHEM_TOTAL_CHARGE>
0

> <PUBCHEM_HEAVY_ATOM_COUNT>
20

> <PUBCHEM_ATOM_DEF_STEREO_COUNT>
0

> <PUBCHEM_ATOM_UDEF_STEREO_COUNT>
0

> <PUBCHEM_BOND_DEF_STEREO_COUNT>
0

> <PUBCHEM_BOND_UDEF_STEREO_COUNT>
0

> <PUBCHEM_ISOTOPIC_ATOM_COUNT>
0

> <PUBCHEM_COMPONENT_COUNT>
1

> <PUBCHEM_CACTVS_TAUTO_COUNT>
510

> <PUBCHEM_COORDINATE_TYPE>
1
5
255

> <PUBCHEM_BONDANNOTATIONS>
11  15  8
12  17  8
13  16  8
14  19  8
15  20  8
16  18  8
17  18  8
19  20  8
8  11  8
8  14  8
9  12  8
9  13  8

> <DRUG_ID>
w156

> <DRUG_NAME>
Exifone

$$$$
5280360
  CDK     0927151942
null
 57 57  0  0  0  0  0  0  0  0999 V2000
   10.3299   -2.1048    0.0000 O   0  0  0  0  0  0  0  0  0  0  0  0
    7.4820   -4.1739    0.0000 O   0  0  0  0  0  0  0  0  0  0  0  0
    8.5698    1.1739    0.0000 O   0  0  0  0  0  0  0  0  0  0  0  0
    2.5896    1.0875    0.0000 O   0  0  0  0  0  0  0  0  0  0  0  0
    2.0544   -0.5598    0.0000 O   0  0  0  0  0  0  0  0  0  0  0  0
    8.5698   -1.8261    0.0000 C   0  0  2  0  0  0  0  0  0  0  0  0
    7.7608   -2.4139    0.0000 C   0  0  2  0  0  0  0  0  0  0  0  0
    9.3788   -2.4139    0.0000 C   0  0  1  0  0  0  0  0  0  0  0  0
    9.0698   -3.3649    0.0000 C   0  0  0  0  0  0  0  0  0  0  0  0
    8.0698   -3.3649    0.0000 C   0  0  0  0  0  0  0  0  0  0  0  0
    6.8097   -2.1048    0.0000 C   0  0  0  0  0  0  0  0  0  0  0  0
    8.5698   -0.8261    0.0000 C   0  0  0  0  0  0  0  0  0  0  0  0
    9.4358   -0.3261    0.0000 C   0  0  0  0  0  0  0  0  0  0  0  0
    6.0666   -2.7740    0.0000 C   0  0  0  0  0  0  0  0  0  0  0  0
    9.4358    0.6739    0.0000 C   0  0  2  0  0  0  0  0  0  0  0  0
   10.3018    1.1739    0.0000 C   0  0  0  0  0  0  0  0  0  0  0  0
   10.3018    2.1739    0.0000 C   0  0  0  0  0  0  0  0  0  0  0  0
    5.1155   -2.4650    0.0000 C   0  0  0  0  0  0  0  0  0  0  0  0
   11.1679    2.6739    0.0000 C   0  0  0  0  0  0  0  0  0  0  0  0
    4.9076   -1.4868    0.0000 C   0  0  0  0  0  0  0  0  0  0  0  0
   11.1679    3.6739    0.0000 C   0  0  0  0  0  0  0  0  0  0  0  0
    3.9565   -1.1778    0.0000 C   0  0  0  0  0  0  0  0  0  0  0  0
    3.7486   -0.1996    0.0000 C   0  0  0  0  0  0  0  0  0  0  0  0
   12.0339    4.1739    0.0000 C   0  0  0  0  0  0  0  0  0  0  0  0
    2.7976    0.1094    0.0000 C   0  0  0  0  0  0  0  0  0  0  0  0
    9.1222   -1.5446    0.0000 H   0  0  0  0  0  0  0  0  0  0  0  0
    7.3224   -2.8523    0.0000 H   0  0  0  0  0  0  0  0  0  0  0  0
    9.4758   -1.8015    0.0000 H   0  0  0  0  0  0  0  0  0  0  0  0
    9.0050   -3.9815    0.0000 H   0  0  0  0  0  0  0  0  0  0  0  0
    9.6762   -3.4938    0.0000 H   0  0  0  0  0  0  0  0  0  0  0  0
    7.1008   -1.5574    0.0000 H   0  0  0  0  0  0  0  0  0  0  0  0
    6.3211   -1.7231    0.0000 H   0  0  0  0  0  0  0  0  0  0  0  0
    8.0328   -0.5161    0.0000 H   0  0  0  0  0  0  0  0  0  0  0  0
    9.9727   -0.6361    0.0000 H   0  0  0  0  0  0  0  0  0  0  0  0
   10.7906   -2.5197    0.0000 H   0  0  0  0  0  0  0  0  0  0  0  0
    6.1955   -3.3804    0.0000 H   0  0  0  0  0  0  0  0  0  0  0  0
    8.8989    0.3639    0.0000 H   0  0  0  0  0  0  0  0  0  0  0  0
   10.5139    0.5913    0.0000 H   0  0  0  0  0  0  0  0  0  0  0  0
   10.9124    1.2816    0.0000 H   0  0  0  0  0  0  0  0  0  0  0  0
   10.0898    2.7565    0.0000 H   0  0  0  0  0  0  0  0  0  0  0  0
    9.6912    2.0663    0.0000 H   0  0  0  0  0  0  0  0  0  0  0  0
    4.6548   -2.8798    0.0000 H   0  0  0  0  0  0  0  0  0  0  0  0
   11.3799    2.0913    0.0000 H   0  0  0  0  0  0  0  0  0  0  0  0
   11.7784    2.7816    0.0000 H   0  0  0  0  0  0  0  0  0  0  0  0
    5.5272   -1.4652    0.0000 H   0  0  0  0  0  0  0  0  0  0  0  0
    4.9939   -0.8728    0.0000 H   0  0  0  0  0  0  0  0  0  0  0  0
    8.5698    1.7939    0.0000 H   0  0  0  0  0  0  0  0  0  0  0  0
   10.9558    4.2565    0.0000 H   0  0  0  0  0  0  0  0  0  0  0  0
   10.5573    3.5663    0.0000 H   0  0  0  0  0  0  0  0  0  0  0  0
    3.3369   -1.1994    0.0000 H   0  0  0  0  0  0  0  0  0  0  0  0
    3.8702   -1.7918    0.0000 H   0  0  0  0  0  0  0  0  0  0  0  0
    4.3682   -0.1780    0.0000 H   0  0  0  0  0  0  0  0  0  0  0  0
    3.8349    0.4143    0.0000 H   0  0  0  0  0  0  0  0  0  0  0  0
   12.3439    3.6370    0.0000 H   0  0  0  0  0  0  0  0  0  0  0  0
   12.5708    4.4839    0.0000 H   0  0  0  0  0  0  0  0  0  0  0  0
   11.7239    4.7109    0.0000 H   0  0  0  0  0  0  0  0  0  0  0  0
    2.0000    1.2791    0.0000 H   0  0  0  0  0  0  0  0  0  0  0  0
  8  1  1  6  0  0  0 
  1 35  1  0  0  0  0 
  2 10  2  0  0  0  0 
 15  3  1  1  0  0  0 
  3 47  1  0  0  0  0 
  4 25  1  0  0  0  0 
  4 57  1  0  0  0  0 
  5 25  2  0  0  0  0 
  6  7  1  0  0  0  0 
  6  8  1  0  0  0  0 
  6 12  1  1  0  0  0 
  6 26  1  0  0  0  0 
  7 10  1  0  0  0  0 
  7 11  1  6  0  0  0 
  7 27  1  0  0  0  0 
  8  9  1  0  0  0  0 
  8 28  1  0  0  0  0 
  9 10  1  0  0  0  0 
  9 29  1  0  0  0  0 
  9 30  1  0  0  0  0 
 11 14  1  0  0  0  0 
 11 31  1  0  0  0  0 
 11 32  1  0  0  0  0 
 12 13  2  0  0  0  0 
 12 33  1  0  0  0  0 
 13 15  1  0  0  0  0 
 13 34  1  0  0  0  0 
 14 18  2  0  0  0  0 
 14 36  1  0  0  0  0 
 15 16  1  0  0  0  0 
 15 37  1  0  0  0  0 
 16 17  1  0  0  0  0 
 16 38  1  0  0  0  0 
 16 39  1  0  0  0  0 
 17 19  1  0  0  0  0 
 17 40  1  0  0  0  0 
 17 41  1  0  0  0  0 
 18 20  1  0  0  0  0 
 18 42  1  0  0  0  0 
 19 21  1  0  0  0  0 
 19 43  1  0  0  0  0 
 19 44  1  0  0  0  0 
 20 22  1  0  0  0  0 
 20 45  1  0  0  0  0 
 20 46  1  0  0  0  0 
 21 24  1  0  0  0  0 
 21 48  1  0  0  0  0 
 21 49  1  0  0  0  0 
 22 23  1  0  0  0  0 
 22 50  1  0  0  0  0 
 22 51  1  0  0  0  0 
 23 25  1  0  0  0  0 
 23 52  1  0  0  0  0 
 23 53  1  0  0  0  0 
 24 54  1  0  0  0  0 
 24 55  1  0  0  0  0 
 24 56  1  0  0  0  0 
M  END
> <cdk:Title>
5280360

> <cdk:Remark>
null

> <PUBCHEM_COMPOUND_CID>
5280360

> <PUBCHEM_COMPOUND_CANONICALIZED>
1

> <PUBCHEM_CACTVS_COMPLEXITY>
469

> <PUBCHEM_CACTVS_HBOND_ACCEPTOR>
5

> <PUBCHEM_CACTVS_HBOND_DONOR>
3

> <PUBCHEM_CACTVS_ROTATABLE_BOND>
12

> <PUBCHEM_CACTVS_SUBSKEYS>
AAADcfB4OAAAAAAAAAAAAAAAAAAAAYAAAAAAAAAAAAAAAAAAAAAAGgAACAAADRSggAICCAAAAgCIAKDSCAAAAAAgAAAICAEAAAgAFBYAAQAAUAAE4AAIEAOKyICOgAAAAAAAAAAAAAAAAAAAAIAADAAAAA==

> <PUBCHEM_IUPAC_OPENEYE_NAME>
(Z)-7-[(1R,2R,3R)-3-hydroxy-2-[(E,3S)-3-hydroxyoct-1-enyl]-5-oxo-cyclopentyl]hept-5-enoic acid

> <PUBCHEM_IUPAC_CAS_NAME>
(Z)-7-[(1R,2R,3R)-3-hydroxy-2-[(E,3S)-3-hydroxyoct-1-enyl]-5-oxocyclopentyl]-5-heptenoic acid

> <PUBCHEM_IUPAC_NAME>
(Z)-7-[(1R,2R,3R)-3-hydroxy-2-[(E,3S)-3-hydroxyoct-1-enyl]-5-oxocyclopentyl]hept-5-enoic acid

> <PUBCHEM_IUPAC_SYSTEMATIC_NAME>
(Z)-7-[(1R,2R,3R)-3-oxidanyl-5-oxidanylidene-2-[(E,3S)-3-oxidanyloct-1-enyl]cyclopentyl]hept-5-enoic acid

> <PUBCHEM_IUPAC_TRADITIONAL_NAME>
(Z)-7-[(1R,2R,3R)-3-hydroxy-2-[(E,3S)-3-hydroxyoct-1-enyl]-5-keto-cyclopentyl]hept-5-enoic acid

> <PUBCHEM_IUPAC_INCHI>
InChI=1S/C20H32O5/c1-2-3-6-9-15(21)12-13-17-16(18(22)14-19(17)23)10-7-4-5-8-11-20(24)25/h4,7,12-13,15-17,19,21,23H,2-3,5-6,8-11,14H2,1H3,(H,24,25)/b7-4-,13-12+/t15-,16+,17+,19+/m0/s1

> <PUBCHEM_IUPAC_INCHIKEY>
XEYBRNLFEZDVAW-ARSRFYASSA-N

> <PUBCHEM_XLOGP3>
2.8

> <PUBCHEM_EXACT_MASS>
352.224974

> <PUBCHEM_MOLECULAR_FORMULA>
C20H32O5

> <PUBCHEM_MOLECULAR_WEIGHT>
352.46508

> <PUBCHEM_OPENEYE_CAN_SMILES>
CCCCCC(C=CC1C(CC(=O)C1CC=CCCCC(=O)O)O)O

> <PUBCHEM_OPENEYE_ISO_SMILES>
CCCCC[C@@H](/C=C/[C@H]1[C@@H](CC(=O)[C@@H]1C/C=C\CCCC(=O)O)O)O

> <PUBCHEM_CACTVS_TPSA>
94.8

> <PUBCHEM_MONOISOTOPIC_WEIGHT>
352.224974

> <PUBCHEM_TOTAL_CHARGE>
0

> <PUBCHEM_HEAVY_ATOM_COUNT>
25

> <PUBCHEM_ATOM_DEF_STEREO_COUNT>
4

> <PUBCHEM_ATOM_UDEF_STEREO_COUNT>
0

> <PUBCHEM_BOND_DEF_STEREO_COUNT>
2

> <PUBCHEM_BOND_UDEF_STEREO_COUNT>
0

> <PUBCHEM_ISOTOPIC_ATOM_COUNT>
0

> <PUBCHEM_COMPONENT_COUNT>
1

> <PUBCHEM_CACTVS_TAUTO_COUNT>
6

> <PUBCHEM_COORDINATE_TYPE>
1
5
255

> <PUBCHEM_BONDANNOTATIONS>
8  1  6
15  3  5
6  12  5
7  11  6

> <DRUG_ID>
w157

> <DRUG_NAME>
Dinoprostone

$$$$
5284570
  CDK     0927151942
null
 40 44  0  0  0  0  0  0  0  0999 V2000
    2.2314   -0.2572    0.0000 O   0  0  0  0  0  0  0  0  0  0  0  0
    2.0000   -2.7122    0.0000 O   0  0  0  0  0  0  0  0  0  0  0  0
    2.0000    2.0922    0.0000 O   0  0  0  0  0  0  0  0  0  0  0  0
    6.1607   -1.2611    0.0000 N   0  0  3  0  0  0  0  0  0  0  0  0
    3.6897   -0.7855    0.0000 C   0  0  1  0  0  0  0  0  0  0  0  0
    4.5133   -1.2611    0.0000 C   0  0  2  0  0  0  0  0  0  0  0  0
    5.3370   -0.7855    0.0000 C   0  0  1  0  0  0  0  0  0  0  0  0
    2.8660   -1.2611    0.0000 C   0  0  2  0  0  0  0  0  0  0  0  0
    4.2392   -0.0881    0.0000 C   0  0  0  0  0  0  0  0  0  0  0  0
    3.6897    0.1655    0.0000 C   0  0  0  0  0  0  0  0  0  0  0  0
    4.5133   -2.2122    0.0000 C   0  0  0  0  0  0  0  0  0  0  0  0
    5.3370    0.1655    0.0000 C   0  0  0  0  0  0  0  0  0  0  0  0
    5.5918   -0.0881    0.0000 C   0  0  0  0  0  0  0  0  0  0  0  0
    4.5133    0.6411    0.0000 C   0  0  0  0  0  0  0  0  0  0  0  0
    3.6897   -2.6877    0.0000 C   0  0  0  0  0  0  0  0  0  0  0  0
    2.8660   -2.2122    0.0000 C   0  0  0  0  0  0  0  0  0  0  0  0
    2.8660    0.6411    0.0000 C   0  0  0  0  0  0  0  0  0  0  0  0
    6.8418   -1.9932    0.0000 C   0  0  0  0  0  0  0  0  0  0  0  0
    4.5133    1.5922    0.0000 C   0  0  0  0  0  0  0  0  0  0  0  0
    2.8660    1.5922    0.0000 C   0  0  0  0  0  0  0  0  0  0  0  0
    3.6897    2.0677    0.0000 C   0  0  0  0  0  0  0  0  0  0  0  0
    5.0597   -1.9122    0.0000 H   0  0  0  0  0  0  0  0  0  0  0  0
    5.6284   -1.5840    0.0000 H   0  0  0  0  0  0  0  0  0  0  0  0
    2.0496   -1.4975    0.0000 H   0  0  0  0  0  0  0  0  0  0  0  0
    4.3760    0.5166    0.0000 H   0  0  0  0  0  0  0  0  0  0  0  0
    3.6795    0.1787    0.0000 H   0  0  0  0  0  0  0  0  0  0  0  0
    4.7254   -2.7948    0.0000 H   0  0  0  0  0  0  0  0  0  0  0  0
    5.1239   -2.1045    0.0000 H   0  0  0  0  0  0  0  0  0  0  0  0
    5.9476    0.0579    0.0000 H   0  0  0  0  0  0  0  0  0  0  0  0
    5.5490    0.7481    0.0000 H   0  0  0  0  0  0  0  0  0  0  0  0
    6.1840    0.0957    0.0000 H   0  0  0  0  0  0  0  0  0  0  0  0
    5.4989    0.5249    0.0000 H   0  0  0  0  0  0  0  0  0  0  0  0
    3.2912   -3.1626    0.0000 H   0  0  0  0  0  0  0  0  0  0  0  0
    4.0882   -3.1626    0.0000 H   0  0  0  0  0  0  0  0  0  0  0  0
    6.3879   -2.4155    0.0000 H   0  0  0  0  0  0  0  0  0  0  0  0
    7.2641   -2.4471    0.0000 H   0  0  0  0  0  0  0  0  0  0  0  0
    7.2957   -1.5709    0.0000 H   0  0  0  0  0  0  0  0  0  0  0  0
    5.0503    1.9022    0.0000 H   0  0  0  0  0  0  0  0  0  0  0  0
    3.6897    2.6877    0.0000 H   0  0  0  0  0  0  0  0  0  0  0  0
    2.0000    2.7122    0.0000 H   0  0  0  0  0  0  0  0  0  0  0  0
  1  8  1  0  0  0  0 
  1 17  1  0  0  0  0 
  2 16  2  0  0  0  0 
  3 20  1  0  0  0  0 
  3 40  1  0  0  0  0 
  4  7  1  0  0  0  0 
  4 13  1  0  0  0  0 
  4 18  1  0  0  0  0 
  5  6  1  0  0  0  0 
  5  8  1  0  0  0  0 
  5  9  1  1  0  0  0 
  5 10  1  0  0  0  0 
  6  7  1  0  0  0  0 
  6 11  1  0  0  0  0 
  6 22  1  1  0  0  0 
  7 12  1  0  0  0  0 
  7 23  1  6  0  0  0 
  8 16  1  0  0  0  0 
  8 24  1  1  0  0  0 
  9 13  1  0  0  0  0 
  9 25  1  0  0  0  0 
  9 26  1  0  0  0  0 
 10 14  2  0  0  0  0 
 10 17  1  0  0  0  0 
 11 15  1  0  0  0  0 
 11 27  1  0  0  0  0 
 11 28  1  0  0  0  0 
 12 14  1  0  0  0  0 
 12 29  1  0  0  0  0 
 12 30  1  0  0  0  0 
 13 31  1  0  0  0  0 
 13 32  1  0  0  0  0 
 14 19  1  0  0  0  0 
 15 16  1  0  0  0  0 
 15 33  1  0  0  0  0 
 15 34  1  0  0  0  0 
 17 20  2  0  0  0  0 
 18 35  1  0  0  0  0 
 18 36  1  0  0  0  0 
 18 37  1  0  0  0  0 
 19 21  2  0  0  0  0 
 19 38  1  0  0  0  0 
 20 21  1  0  0  0  0 
 21 39  1  0  0  0  0 
M  END
> <cdk:Title>
5284570

> <cdk:Remark>
null

> <PUBCHEM_COMPOUND_CID>
5284570

> <PUBCHEM_COMPOUND_CANONICALIZED>
1

> <PUBCHEM_CACTVS_COMPLEXITY>
494

> <PUBCHEM_CACTVS_HBOND_ACCEPTOR>
4

> <PUBCHEM_CACTVS_HBOND_DONOR>
1

> <PUBCHEM_CACTVS_ROTATABLE_BOND>
0

> <PUBCHEM_CACTVS_SUBSKEYS>
AAADceB6MAAAAAAAAAAAAAAAAAAAASAAAAA8YMEAAAAWAEjxAAAAHgAACAAADzzhmAYyBoMABgCIAqBSAAICCAAgIAAIiAFOiIgNJjKGsR+GeCOkwBGLuAe4/fffoAABAAAYQADQAAaAADSAAAAAAAAAAA==

> <PUBCHEM_IUPAC_OPENEYE_NAME>
(4R,4aR,7aR,12bS)-9-hydroxy-3-methyl-1,2,4,4a,5,6,7a,13-octahydro-4,12-methanobenzofuro[3,2-e]isoquinoline-7-one

> <PUBCHEM_IUPAC_CAS_NAME>
(4R,4aR,7aR,12bS)-9-hydroxy-3-methyl-1,2,4,4a,5,6,7a,13-octahydro-4,12-methanobenzofuro[3,2-e]isoquinoline-7-one

> <PUBCHEM_IUPAC_NAME>
(4R,4aR,7aR,12bS)-9-hydroxy-3-methyl-1,2,4,4a,5,6,7a,13-octahydro-4,12-methanobenzofuro[3,2-e]isoquinoline-7-one

> <PUBCHEM_IUPAC_SYSTEMATIC_NAME>
(4R,4aR,7aR,12bS)-3-methyl-9-oxidanyl-1,2,4,4a,5,6,7a,13-octahydro-4,12-methanobenzofuro[3,2-e]isoquinoline-7-one

> <PUBCHEM_IUPAC_TRADITIONAL_NAME>
(4R,4aR,7aR,12bS)-9-hydroxy-3-methyl-1,2,4,4a,5,6,7a,13-octahydro-4,12-methanobenzofuro[3,2-e]isoquinoline-7-one

> <PUBCHEM_IUPAC_INCHI>
InChI=1S/C17H19NO3/c1-18-7-6-17-10-3-5-13(20)16(17)21-15-12(19)4-2-9(14(15)17)8-11(10)18/h2,4,10-11,16,19H,3,5-8H2,1H3/t10-,11+,16-,17-/m0/s1

> <PUBCHEM_IUPAC_INCHIKEY>
WVLOADHCBXTIJK-YNHQPCIGSA-N

> <PUBCHEM_XLOGP3_AA>
1.8

> <PUBCHEM_EXACT_MASS>
285.136493

> <PUBCHEM_MOLECULAR_FORMULA>
C17H19NO3

> <PUBCHEM_MOLECULAR_WEIGHT>
285.33766

> <PUBCHEM_OPENEYE_CAN_SMILES>
CN1CCC23C4C1CC5=C2C(=C(C=C5)O)OC3C(=O)CC4

> <PUBCHEM_OPENEYE_ISO_SMILES>
CN1CC[C@]23[C@@H]4[C@H]1CC5=C2C(=C(C=C5)O)O[C@H]3C(=O)CC4

> <PUBCHEM_CACTVS_TPSA>
49.8

> <PUBCHEM_MONOISOTOPIC_WEIGHT>
285.136493

> <PUBCHEM_TOTAL_CHARGE>
0

> <PUBCHEM_HEAVY_ATOM_COUNT>
21

> <PUBCHEM_ATOM_DEF_STEREO_COUNT>
4

> <PUBCHEM_ATOM_UDEF_STEREO_COUNT>
0

> <PUBCHEM_BOND_DEF_STEREO_COUNT>
0

> <PUBCHEM_BOND_UDEF_STEREO_COUNT>
0

> <PUBCHEM_ISOTOPIC_ATOM_COUNT>
0

> <PUBCHEM_COMPONENT_COUNT>
1

> <PUBCHEM_CACTVS_TAUTO_COUNT>
10

> <PUBCHEM_COORDINATE_TYPE>
1
5
255

> <PUBCHEM_BONDANNOTATIONS>
10  14  8
10  17  8
14  19  8
17  20  8
19  21  8
20  21  8
5  9  5
6  22  5
7  23  6
8  24  5

> <DRUG_ID>
w158

> <DRUG_NAME>
Hydromorphone

$$$$
3759
  CDK     0927151942
null
 30 31  0  0  0  0  0  0  0  0999 V2000
    4.0981    3.3649    0.0000 O   0  0  0  0  0  0  0  0  0  0  0  0
    5.4641    0.3261    0.0000 O   0  0  0  0  0  0  0  0  0  0  0  0
    3.7320   -0.6739    0.0000 N   0  0  0  0  0  0  0  0  0  0  0  0
    3.7320    0.3261    0.0000 N   0  0  0  0  0  0  0  0  0  0  0  0
    3.7891    2.4139    0.0000 N   0  0  0  0  0  0  0  0  0  0  0  0
    2.8660   -1.1739    0.0000 C   0  0  0  0  0  0  0  0  0  0  0  0
    2.8660   -2.1739    0.0000 C   0  0  0  0  0  0  0  0  0  0  0  0
    2.0000   -2.6739    0.0000 C   0  0  0  0  0  0  0  0  0  0  0  0
    3.7320   -2.6739    0.0000 C   0  0  0  0  0  0  0  0  0  0  0  0
    4.5981    1.8261    0.0000 C   0  0  0  0  0  0  0  0  0  0  0  0
    4.5981    0.8261    0.0000 C   0  0  0  0  0  0  0  0  0  0  0  0
    2.0000   -3.6739    0.0000 C   0  0  0  0  0  0  0  0  0  0  0  0
    3.7320   -3.6739    0.0000 C   0  0  0  0  0  0  0  0  0  0  0  0
    5.4071    2.4139    0.0000 C   0  0  0  0  0  0  0  0  0  0  0  0
    5.0981    3.3649    0.0000 C   0  0  0  0  0  0  0  0  0  0  0  0
    2.8660   -4.1739    0.0000 C   0  0  0  0  0  0  0  0  0  0  0  0
    5.6859    4.1739    0.0000 C   0  0  0  0  0  0  0  0  0  0  0  0
    2.6540   -0.5913    0.0000 H   0  0  0  0  0  0  0  0  0  0  0  0
    2.2554   -1.2816    0.0000 H   0  0  0  0  0  0  0  0  0  0  0  0
    4.2690   -0.9839    0.0000 H   0  0  0  0  0  0  0  0  0  0  0  0
    1.4631   -2.3639    0.0000 H   0  0  0  0  0  0  0  0  0  0  0  0
    4.2690   -2.3639    0.0000 H   0  0  0  0  0  0  0  0  0  0  0  0
    3.1951    0.6361    0.0000 H   0  0  0  0  0  0  0  0  0  0  0  0
    5.9967    2.2223    0.0000 H   0  0  0  0  0  0  0  0  0  0  0  0
    1.4631   -3.9839    0.0000 H   0  0  0  0  0  0  0  0  0  0  0  0
    4.2690   -3.9839    0.0000 H   0  0  0  0  0  0  0  0  0  0  0  0
    2.8660   -4.7939    0.0000 H   0  0  0  0  0  0  0  0  0  0  0  0
    6.1874    3.8095    0.0000 H   0  0  0  0  0  0  0  0  0  0  0  0
    6.0503    4.6755    0.0000 H   0  0  0  0  0  0  0  0  0  0  0  0
    5.1843    4.5384    0.0000 H   0  0  0  0  0  0  0  0  0  0  0  0
  1  5  1  0  0  0  0 
  1 15  1  0  0  0  0 
  2 11  2  0  0  0  0 
  3  4  1  0  0  0  0 
  3  6  1  0  0  0  0 
  3 20  1  0  0  0  0 
  4 11  1  0  0  0  0 
  4 23  1  0  0  0  0 
  5 10  2  0  0  0  0 
  6  7  1  0  0  0  0 
  6 18  1  0  0  0  0 
  6 19  1  0  0  0  0 
  7  8  2  0  0  0  0 
  7  9  1  0  0  0  0 
  8 12  1  0  0  0  0 
  8 21  1  0  0  0  0 
  9 13  2  0  0  0  0 
  9 22  1  0  0  0  0 
 10 11  1  0  0  0  0 
 10 14  1  0  0  0  0 
 12 16  2  0  0  0  0 
 12 25  1  0  0  0  0 
 13 16  1  0  0  0  0 
 13 26  1  0  0  0  0 
 14 15  2  0  0  0  0 
 14 24  1  0  0  0  0 
 15 17  1  0  0  0  0 
 16 27  1  0  0  0  0 
 17 28  1  0  0  0  0 
 17 29  1  0  0  0  0 
 17 30  1  0  0  0  0 
M  END
> <cdk:Title>
3759

> <cdk:Remark>
null

> <PUBCHEM_COMPOUND_CID>
3759

> <PUBCHEM_COMPOUND_CANONICALIZED>
1

> <PUBCHEM_CACTVS_COMPLEXITY>
254

> <PUBCHEM_CACTVS_HBOND_ACCEPTOR>
4

> <PUBCHEM_CACTVS_HBOND_DONOR>
2

> <PUBCHEM_CACTVS_ROTATABLE_BOND>
4

> <PUBCHEM_CACTVS_SUBSKEYS>
AAADccBzMAAAAAAAAAAAAAAAAAAAAWAAAAAwAAAAAAAAAAABwAAAHgAcAAAADAzBngQyhJByAACpA6VyUgCCAAAmIgI6uKG2bNoIZjqAlZOAMYBmgBgIycc/gAAOAAAAAAAAAAAAAAAAAAAAAAAAAAAAAA==

> <PUBCHEM_IUPAC_OPENEYE_NAME>
N'-benzyl-5-methyl-isoxazole-3-carbohydrazide

> <PUBCHEM_IUPAC_CAS_NAME>
5-methyl-N'-(phenylmethyl)-3-isoxazolecarbohydrazide

> <PUBCHEM_IUPAC_NAME>
N'-benzyl-5-methyl-1,2-oxazole-3-carbohydrazide

> <PUBCHEM_IUPAC_SYSTEMATIC_NAME>
5-methyl-N'-(phenylmethyl)-1,2-oxazole-3-carbohydrazide

> <PUBCHEM_IUPAC_TRADITIONAL_NAME>
N'-benzyl-5-methyl-isoxazole-3-carbohydrazide

> <PUBCHEM_IUPAC_INCHI>
InChI=1S/C12H13N3O2/c1-9-7-11(15-17-9)12(16)14-13-8-10-5-3-2-4-6-10/h2-7,13H,8H2,1H3,(H,14,16)

> <PUBCHEM_IUPAC_INCHIKEY>
XKFPYPQQHFEXRZ-UHFFFAOYSA-N

> <PUBCHEM_XLOGP3>
1.5

> <PUBCHEM_EXACT_MASS>
231.100777

> <PUBCHEM_MOLECULAR_FORMULA>
C12H13N3O2

> <PUBCHEM_MOLECULAR_WEIGHT>
231.25052

> <PUBCHEM_OPENEYE_CAN_SMILES>
CC1=CC(=NO1)C(=O)NNCC2=CC=CC=C2

> <PUBCHEM_OPENEYE_ISO_SMILES>
CC1=CC(=NO1)C(=O)NNCC2=CC=CC=C2

> <PUBCHEM_CACTVS_TPSA>
67.2

> <PUBCHEM_MONOISOTOPIC_WEIGHT>
231.100777

> <PUBCHEM_TOTAL_CHARGE>
0

> <PUBCHEM_HEAVY_ATOM_COUNT>
17

> <PUBCHEM_ATOM_DEF_STEREO_COUNT>
0

> <PUBCHEM_ATOM_UDEF_STEREO_COUNT>
0

> <PUBCHEM_BOND_DEF_STEREO_COUNT>
0

> <PUBCHEM_BOND_UDEF_STEREO_COUNT>
0

> <PUBCHEM_ISOTOPIC_ATOM_COUNT>
0

> <PUBCHEM_COMPONENT_COUNT>
1

> <PUBCHEM_CACTVS_TAUTO_COUNT>
2

> <PUBCHEM_COORDINATE_TYPE>
1
5
255

> <PUBCHEM_BONDANNOTATIONS>
1  15  8
1  5  8
10  14  8
12  16  8
13  16  8
14  15  8
5  10  8
7  8  8
7  9  8
8  12  8
9  13  8

> <DRUG_ID>
w159

> <DRUG_NAME>
Isocarboxazid

$$$$
31477
  CDK     0927151942
null
 49 49  0  0  0  0  0  0  0  0999 V2000
    3.7320   -0.5000    0.0000 O   0  0  0  0  0  0  0  0  0  0  0  0
    3.7320   -2.5000    0.0000 O   0  0  0  0  0  0  0  0  0  0  0  0
    3.7320    3.5000    0.0000 O   0  0  0  0  0  0  0  0  0  0  0  0
    5.4641    3.5000    0.0000 O   0  0  0  0  0  0  0  0  0  0  0  0
    5.4641   -3.5000    0.0000 N   0  0  0  0  0  0  0  0  0  0  0  0
    4.5981   -2.0000    0.0000 C   0  0  3  0  0  0  0  0  0  0  0  0
    5.4641   -2.5000    0.0000 C   0  0  0  0  0  0  0  0  0  0  0  0
    6.3301   -4.0000    0.0000 C   0  0  0  0  0  0  0  0  0  0  0  0
    4.5981   -1.0000    0.0000 C   0  0  0  0  0  0  0  0  0  0  0  0
    3.7320    0.5000    0.0000 C   0  0  0  0  0  0  0  0  0  0  0  0
    2.8660    1.0000    0.0000 C   0  0  0  0  0  0  0  0  0  0  0  0
    2.8660    2.0000    0.0000 C   0  0  0  0  0  0  0  0  0  0  0  0
    4.5981    2.0000    0.0000 C   0  0  0  0  0  0  0  0  0  0  0  0
    3.7320    2.5000    0.0000 C   0  0  0  0  0  0  0  0  0  0  0  0
    6.3301   -5.0000    0.0000 C   0  0  0  0  0  0  0  0  0  0  0  0
    7.1962   -3.5000    0.0000 C   0  0  0  0  0  0  0  0  0  0  0  0
    4.5981    1.0000    0.0000 C   0  0  0  0  0  0  0  0  0  0  0  0
    2.0000    0.5000    0.0000 C   0  0  0  0  0  0  0  0  0  0  0  0
    2.0000    2.5000    0.0000 C   0  0  0  0  0  0  0  0  0  0  0  0
    5.4641    2.5000    0.0000 C   0  0  0  0  0  0  0  0  0  0  0  0
    4.5981    4.0000    0.0000 C   0  0  0  0  0  0  0  0  0  0  0  0
    4.5981    5.0000    0.0000 C   0  0  0  0  0  0  0  0  0  0  0  0
    4.5981   -2.8500    0.0000 H   0  0  0  0  0  0  0  0  0  0  0  0
    6.0747   -2.6077    0.0000 H   0  0  0  0  0  0  0  0  0  0  0  0
    5.6762   -1.9174    0.0000 H   0  0  0  0  0  0  0  0  0  0  0  0
    5.7932   -4.3100    0.0000 H   0  0  0  0  0  0  0  0  0  0  0  0
    5.2087   -1.1077    0.0000 H   0  0  0  0  0  0  0  0  0  0  0  0
    4.8101   -0.4174    0.0000 H   0  0  0  0  0  0  0  0  0  0  0  0
    4.9272   -3.8100    0.0000 H   0  0  0  0  0  0  0  0  0  0  0  0
    5.1350    0.6900    0.0000 H   0  0  0  0  0  0  0  0  0  0  0  0
    5.7101   -5.0000    0.0000 H   0  0  0  0  0  0  0  0  0  0  0  0
    6.3301   -5.6200    0.0000 H   0  0  0  0  0  0  0  0  0  0  0  0
    6.9501   -5.0000    0.0000 H   0  0  0  0  0  0  0  0  0  0  0  0
    7.5062   -4.0369    0.0000 H   0  0  0  0  0  0  0  0  0  0  0  0
    7.7331   -3.1900    0.0000 H   0  0  0  0  0  0  0  0  0  0  0  0
    6.8862   -2.9631    0.0000 H   0  0  0  0  0  0  0  0  0  0  0  0
    1.6900    1.0369    0.0000 H   0  0  0  0  0  0  0  0  0  0  0  0
    1.4631    0.1900    0.0000 H   0  0  0  0  0  0  0  0  0  0  0  0
    2.3100   -0.0369    0.0000 H   0  0  0  0  0  0  0  0  0  0  0  0
    2.3100    3.0369    0.0000 H   0  0  0  0  0  0  0  0  0  0  0  0
    1.4631    2.8100    0.0000 H   0  0  0  0  0  0  0  0  0  0  0  0
    1.6900    1.9631    0.0000 H   0  0  0  0  0  0  0  0  0  0  0  0
    3.7320   -3.1200    0.0000 H   0  0  0  0  0  0  0  0  0  0  0  0
    5.7741    1.9631    0.0000 H   0  0  0  0  0  0  0  0  0  0  0  0
    6.0010    2.8100    0.0000 H   0  0  0  0  0  0  0  0  0  0  0  0
    5.1541    3.0369    0.0000 H   0  0  0  0  0  0  0  0  0  0  0  0
    5.2181    5.0000    0.0000 H   0  0  0  0  0  0  0  0  0  0  0  0
    4.5981    5.6200    0.0000 H   0  0  0  0  0  0  0  0  0  0  0  0
    3.9781    5.0000    0.0000 H   0  0  0  0  0  0  0  0  0  0  0  0
  1  9  1  0  0  0  0 
  1 10  1  0  0  0  0 
  2  6  1  0  0  0  0 
  2 43  1  0  0  0  0 
  3 14  1  0  0  0  0 
  3 21  1  0  0  0  0 
  4 21  2  0  0  0  0 
  5  7  1  0  0  0  0 
  5  8  1  0  0  0  0 
  5 29  1  0  0  0  0 
  6  7  1  0  0  0  0 
  6  9  1  0  0  0  0 
  6 23  1  0  0  0  0 
  7 24  1  0  0  0  0 
  7 25  1  0  0  0  0 
  8 15  1  0  0  0  0 
  8 16  1  0  0  0  0 
  8 26  1  0  0  0  0 
  9 27  1  0  0  0  0 
  9 28  1  0  0  0  0 
 10 11  2  0  0  0  0 
 10 17  1  0  0  0  0 
 11 12  1  0  0  0  0 
 11 18  1  0  0  0  0 
 12 14  2  0  0  0  0 
 12 19  1  0  0  0  0 
 13 14  1  0  0  0  0 
 13 17  2  0  0  0  0 
 13 20  1  0  0  0  0 
 15 31  1  0  0  0  0 
 15 32  1  0  0  0  0 
 15 33  1  0  0  0  0 
 16 34  1  0  0  0  0 
 16 35  1  0  0  0  0 
 16 36  1  0  0  0  0 
 17 30  1  0  0  0  0 
 18 37  1  0  0  0  0 
 18 38  1  0  0  0  0 
 18 39  1  0  0  0  0 
 19 40  1  0  0  0  0 
 19 41  1  0  0  0  0 
 19 42  1  0  0  0  0 
 20 44  1  0  0  0  0 
 20 45  1  0  0  0  0 
 20 46  1  0  0  0  0 
 21 22  1  0  0  0  0 
 22 47  1  0  0  0  0 
 22 48  1  0  0  0  0 
 22 49  1  0  0  0  0 
M  END
> <cdk:Title>
31477

> <cdk:Remark>
null

> <PUBCHEM_COMPOUND_CID>
31477

> <PUBCHEM_COMPOUND_CANONICALIZED>
1

> <PUBCHEM_CACTVS_COMPLEXITY>
348

> <PUBCHEM_CACTVS_HBOND_ACCEPTOR>
5

> <PUBCHEM_CACTVS_HBOND_DONOR>
2

> <PUBCHEM_CACTVS_ROTATABLE_BOND>
8

> <PUBCHEM_CACTVS_SUBSKEYS>
AAADceB6OAAAAAAAAAAAAAAAAAAAAAAAAAAwAAAAAAAAAAABAAAAHgAQCAAADDzhmAYyDoLABgCIAiDSCAACCAAgIAAAiIAOCIgPNiKEMRqGOiCm0BGbqAfAwPAOwQADAAAYAACCAAYAADAAAAAAAAAAAA==

> <PUBCHEM_IUPAC_OPENEYE_NAME>
[4-[2-hydroxy-3-(isopropylamino)propoxy]-2,3,6-trimethyl-phenyl] acetate

> <PUBCHEM_IUPAC_CAS_NAME>
acetic acid [4-[2-hydroxy-3-(propan-2-ylamino)propoxy]-2,3,6-trimethylphenyl] ester

> <PUBCHEM_IUPAC_NAME>
[4-[2-hydroxy-3-(propan-2-ylamino)propoxy]-2,3,6-trimethylphenyl] acetate

> <PUBCHEM_IUPAC_SYSTEMATIC_NAME>
[2,3,6-trimethyl-4-[2-oxidanyl-3-(propan-2-ylamino)propoxy]phenyl] ethanoate

> <PUBCHEM_IUPAC_TRADITIONAL_NAME>
acetic acid [4-[2-hydroxy-3-(isopropylamino)propoxy]-2,3,6-trimethyl-phenyl] ester

> <PUBCHEM_IUPAC_INCHI>
InChI=1S/C17H27NO4/c1-10(2)18-8-15(20)9-21-16-7-11(3)17(22-14(6)19)13(5)12(16)4/h7,10,15,18,20H,8-9H2,1-6H3

> <PUBCHEM_IUPAC_INCHIKEY>
BQIPXWYNLPYNHW-UHFFFAOYSA-N

> <PUBCHEM_XLOGP3>
2.7

> <PUBCHEM_EXACT_MASS>
309.194008

> <PUBCHEM_MOLECULAR_FORMULA>
C17H27NO4

> <PUBCHEM_MOLECULAR_WEIGHT>
309.40058

> <PUBCHEM_OPENEYE_CAN_SMILES>
CC1=CC(=C(C(=C1OC(=O)C)C)C)OCC(CNC(C)C)O

> <PUBCHEM_OPENEYE_ISO_SMILES>
CC1=CC(=C(C(=C1OC(=O)C)C)C)OCC(CNC(C)C)O

> <PUBCHEM_CACTVS_TPSA>
67.8

> <PUBCHEM_MONOISOTOPIC_WEIGHT>
309.194008

> <PUBCHEM_TOTAL_CHARGE>
0

> <PUBCHEM_HEAVY_ATOM_COUNT>
22

> <PUBCHEM_ATOM_DEF_STEREO_COUNT>
0

> <PUBCHEM_ATOM_UDEF_STEREO_COUNT>
1

> <PUBCHEM_BOND_DEF_STEREO_COUNT>
0

> <PUBCHEM_BOND_UDEF_STEREO_COUNT>
0

> <PUBCHEM_ISOTOPIC_ATOM_COUNT>
0

> <PUBCHEM_COMPONENT_COUNT>
1

> <PUBCHEM_CACTVS_TAUTO_COUNT>
1

> <PUBCHEM_COORDINATE_TYPE>
1
5
255

> <PUBCHEM_BONDANNOTATIONS>
10  11  8
10  17  8
11  12  8
12  14  8
13  14  8
13  17  8
6  23  3

> <DRUG_ID>
w16

> <DRUG_NAME>
Metipranolol

$$$$
10100
  CDK     0927151942
null
 54 55  0  0  0  0  0  0  0  0999 V2000
    3.7057    0.0000    0.0000 O   0  0  0  0  0  0  0  0  0  0  0  0
    2.5925   -1.3269    0.0000 O   0  0  0  0  0  0  0  0  0  0  0  0
    3.8397    2.5000    0.0000 N   0  0  0  0  0  0  0  0  0  0  0  0
    4.7057    0.0000    0.0000 C   0  0  2  0  0  0  0  0  0  0  0  0
    4.7057    1.0000    0.0000 C   0  0  1  0  0  0  0  0  0  0  0  0
    5.7057    0.0000    0.0000 C   0  0  0  0  0  0  0  0  0  0  0  0
    3.8397    1.5000    0.0000 C   0  0  0  0  0  0  0  0  0  0  0  0
    4.7057   -1.0000    0.0000 C   0  0  0  0  0  0  0  0  0  0  0  0
    5.5718    1.5000    0.0000 C   0  0  0  0  0  0  0  0  0  0  0  0
    6.6454    0.3420    0.0000 C   0  0  0  0  0  0  0  0  0  0  0  0
    3.8397   -1.5000    0.0000 C   0  0  0  0  0  0  0  0  0  0  0  0
    5.5718   -1.5000    0.0000 C   0  0  0  0  0  0  0  0  0  0  0  0
    2.7660   -0.3421    0.0000 C   0  0  0  0  0  0  0  0  0  0  0  0
    2.9737    3.0000    0.0000 C   0  0  0  0  0  0  0  0  0  0  0  0
    4.7057    3.0000    0.0000 C   0  0  0  0  0  0  0  0  0  0  0  0
    7.4115   -0.3008    0.0000 C   0  0  0  0  0  0  0  0  0  0  0  0
    6.8191    1.3268    0.0000 C   0  0  0  0  0  0  0  0  0  0  0  0
    3.8397   -2.5000    0.0000 C   0  0  0  0  0  0  0  0  0  0  0  0
    5.5718   -2.5000    0.0000 C   0  0  0  0  0  0  0  0  0  0  0  0
    2.0000    0.3008    0.0000 C   0  0  0  0  0  0  0  0  0  0  0  0
    4.7057   -3.0000    0.0000 C   0  0  0  0  0  0  0  0  0  0  0  0
    8.3512    0.0413    0.0000 C   0  0  0  0  0  0  0  0  0  0  0  0
    7.7588    1.6688    0.0000 C   0  0  0  0  0  0  0  0  0  0  0  0
    8.5248    1.0261    0.0000 C   0  0  0  0  0  0  0  0  0  0  0  0
    2.1737    1.2856    0.0000 C   0  0  0  0  0  0  0  0  0  0  0  0
    5.2427    0.6900    0.0000 H   0  0  0  0  0  0  0  0  0  0  0  0
    5.4602   -0.5693    0.0000 H   0  0  0  0  0  0  0  0  0  0  0  0
    5.5981    0.6106    0.0000 H   0  0  0  0  0  0  0  0  0  0  0  0
    3.2291    1.6077    0.0000 H   0  0  0  0  0  0  0  0  0  0  0  0
    3.6276    0.9174    0.0000 H   0  0  0  0  0  0  0  0  0  0  0  0
    5.8818    0.9631    0.0000 H   0  0  0  0  0  0  0  0  0  0  0  0
    6.1087    1.8100    0.0000 H   0  0  0  0  0  0  0  0  0  0  0  0
    5.2618    2.0369    0.0000 H   0  0  0  0  0  0  0  0  0  0  0  0
    3.3028   -1.1900    0.0000 H   0  0  0  0  0  0  0  0  0  0  0  0
    6.1087   -1.1900    0.0000 H   0  0  0  0  0  0  0  0  0  0  0  0
    3.2837    3.5369    0.0000 H   0  0  0  0  0  0  0  0  0  0  0  0
    2.4367    3.3100    0.0000 H   0  0  0  0  0  0  0  0  0  0  0  0
    2.6637    2.4631    0.0000 H   0  0  0  0  0  0  0  0  0  0  0  0
    5.0157    2.4631    0.0000 H   0  0  0  0  0  0  0  0  0  0  0  0
    5.2427    3.3100    0.0000 H   0  0  0  0  0  0  0  0  0  0  0  0
    4.3957    3.5369    0.0000 H   0  0  0  0  0  0  0  0  0  0  0  0
    7.3038   -0.9113    0.0000 H   0  0  0  0  0  0  0  0  0  0  0  0
    6.3441    1.7254    0.0000 H   0  0  0  0  0  0  0  0  0  0  0  0
    3.3028   -2.8100    0.0000 H   0  0  0  0  0  0  0  0  0  0  0  0
    6.1087   -2.8100    0.0000 H   0  0  0  0  0  0  0  0  0  0  0  0
    1.4174    0.5129    0.0000 H   0  0  0  0  0  0  0  0  0  0  0  0
    1.6900   -0.2361    0.0000 H   0  0  0  0  0  0  0  0  0  0  0  0
    4.7057   -3.6200    0.0000 H   0  0  0  0  0  0  0  0  0  0  0  0
    8.8261   -0.3573    0.0000 H   0  0  0  0  0  0  0  0  0  0  0  0
    7.8664    2.2794    0.0000 H   0  0  0  0  0  0  0  0  0  0  0  0
    9.1074    1.2381    0.0000 H   0  0  0  0  0  0  0  0  0  0  0  0
    2.7843    1.1780    0.0000 H   0  0  0  0  0  0  0  0  0  0  0  0
    2.2814    1.8962    0.0000 H   0  0  0  0  0  0  0  0  0  0  0  0
    1.5631    1.3933    0.0000 H   0  0  0  0  0  0  0  0  0  0  0  0
  4  1  1  6  0  0  0 
  1 13  1  0  0  0  0 
  2 13  2  0  0  0  0 
  3  7  1  0  0  0  0 
  3 14  1  0  0  0  0 
  3 15  1  0  0  0  0 
  4  5  1  0  0  0  0 
  4  6  1  0  0  0  0 
  4  8  1  0  0  0  0 
  5  7  1  0  0  0  0 
  5  9  1  1  0  0  0 
  5 26  1  0  0  0  0 
  6 10  1  0  0  0  0 
  6 27  1  0  0  0  0 
  6 28  1  0  0  0  0 
  7 29  1  0  0  0  0 
  7 30  1  0  0  0  0 
  8 11  2  0  0  0  0 
  8 12  1  0  0  0  0 
  9 31  1  0  0  0  0 
  9 32  1  0  0  0  0 
  9 33  1  0  0  0  0 
 10 16  2  0  0  0  0 
 10 17  1  0  0  0  0 
 11 18  1  0  0  0  0 
 11 34  1  0  0  0  0 
 12 19  2  0  0  0  0 
 12 35  1  0  0  0  0 
 13 20  1  0  0  0  0 
 14 36  1  0  0  0  0 
 14 37  1  0  0  0  0 
 14 38  1  0  0  0  0 
 15 39  1  0  0  0  0 
 15 40  1  0  0  0  0 
 15 41  1  0  0  0  0 
 16 22  1  0  0  0  0 
 16 42  1  0  0  0  0 
 17 23  2  0  0  0  0 
 17 43  1  0  0  0  0 
 18 21  2  0  0  0  0 
 18 44  1  0  0  0  0 
 19 21  1  0  0  0  0 
 19 45  1  0  0  0  0 
 20 25  1  0  0  0  0 
 20 46  1  0  0  0  0 
 20 47  1  0  0  0  0 
 21 48  1  0  0  0  0 
 22 24  2  0  0  0  0 
 22 49  1  0  0  0  0 
 23 24  1  0  0  0  0 
 23 50  1  0  0  0  0 
 24 51  1  0  0  0  0 
 25 52  1  0  0  0  0 
 25 53  1  0  0  0  0 
 25 54  1  0  0  0  0 
M  END
> <cdk:Title>
10100

> <cdk:Remark>
null

> <PUBCHEM_COMPOUND_CID>
10100

> <PUBCHEM_COMPOUND_CANONICALIZED>
1

> <PUBCHEM_CACTVS_COMPLEXITY>
397

> <PUBCHEM_CACTVS_HBOND_ACCEPTOR>
3

> <PUBCHEM_CACTVS_HBOND_DONOR>
0

> <PUBCHEM_CACTVS_ROTATABLE_BOND>
9

> <PUBCHEM_CACTVS_SUBSKEYS>
AAADceB6MAAAAAAAAAAAAAAAAAAAAAAAAAAwYAAAAAAAAAABQAAAHgAAAAAADUTBmAQyCIMABACIAiDSCAACAAAgAAAIiAEICIgIJiKAsRiGMAAmwAEIqAeQwOAOgAAAAAAAAAAAAAAAAAAAAAAAAAAAAA==

> <PUBCHEM_IUPAC_OPENEYE_NAME>
[(1S,2R)-1-benzyl-3-(dimethylamino)-2-methyl-1-phenyl-propyl] propanoate

> <PUBCHEM_IUPAC_CAS_NAME>
propanoic acid [(2S,3R)-4-(dimethylamino)-3-methyl-1,2-diphenylbutan-2-yl] ester

> <PUBCHEM_IUPAC_NAME>
[(2S,3R)-4-(dimethylamino)-3-methyl-1,2-diphenylbutan-2-yl] propanoate

> <PUBCHEM_IUPAC_SYSTEMATIC_NAME>
[(2S,3R)-4-(dimethylamino)-3-methyl-1,2-diphenyl-butan-2-yl] propanoate

> <PUBCHEM_IUPAC_TRADITIONAL_NAME>
propionic acid [(1S,2R)-1-benzyl-3-(dimethylamino)-2-methyl-1-phenyl-propyl] ester

> <PUBCHEM_IUPAC_INCHI>
InChI=1S/C22H29NO2/c1-5-21(24)25-22(18(2)17-23(3)4,20-14-10-7-11-15-20)16-19-12-8-6-9-13-19/h6-15,18H,5,16-17H2,1-4H3/t18-,22+/m1/s1

> <PUBCHEM_IUPAC_INCHIKEY>
XLMALTXPSGQGBX-GCJKJVERSA-N

> <PUBCHEM_XLOGP3>
4.2

> <PUBCHEM_EXACT_MASS>
339.219829

> <PUBCHEM_MOLECULAR_FORMULA>
C22H29NO2

> <PUBCHEM_MOLECULAR_WEIGHT>
339.47116

> <PUBCHEM_OPENEYE_CAN_SMILES>
CCC(=O)OC(CC1=CC=CC=C1)(C2=CC=CC=C2)C(C)CN(C)C

> <PUBCHEM_OPENEYE_ISO_SMILES>
CCC(=O)O[C@](CC1=CC=CC=C1)(C2=CC=CC=C2)[C@H](C)CN(C)C

> <PUBCHEM_CACTVS_TPSA>
29.5

> <PUBCHEM_MONOISOTOPIC_WEIGHT>
339.219829

> <PUBCHEM_TOTAL_CHARGE>
0

> <PUBCHEM_HEAVY_ATOM_COUNT>
25

> <PUBCHEM_ATOM_DEF_STEREO_COUNT>
2

> <PUBCHEM_ATOM_UDEF_STEREO_COUNT>
0

> <PUBCHEM_BOND_DEF_STEREO_COUNT>
0

> <PUBCHEM_BOND_UDEF_STEREO_COUNT>
0

> <PUBCHEM_ISOTOPIC_ATOM_COUNT>
0

> <PUBCHEM_COMPONENT_COUNT>
1

> <PUBCHEM_CACTVS_TAUTO_COUNT>
4

> <PUBCHEM_COORDINATE_TYPE>
1
5
255

> <PUBCHEM_BONDANNOTATIONS>
4  1  6
10  16  8
10  17  8
11  18  8
12  19  8
16  22  8
17  23  8
18  21  8
19  21  8
22  24  8
23  24  8
5  9  5
8  11  8
8  12  8

> <DRUG_ID>
w160

> <DRUG_NAME>
Propoxyphene

$$$$
6252910
  CDK     0927151942
null
 38 39  0  0  0  0  0  0  0  0999 V2000
    4.5032   -0.9073    0.0000 O   0  0  0  0  0  0  0  0  0  0  0  0
   10.2903    1.7553    0.0000 O   0  0  0  0  0  0  0  0  0  0  0  0
    2.0000    0.0406    0.0000 O   0  0  0  0  0  0  0  0  0  0  0  0
   12.3628    3.4492    0.0000 O   0  0  0  0  0  0  0  0  0  0  0  0
    2.5352   -1.6067    0.0000 O   0  0  0  0  0  0  0  0  0  0  0  0
   10.6686    3.8093    0.0000 O   0  0  0  0  0  0  0  0  0  0  0  0
    2.7431   -0.6286    0.0000 N   0  0  0  0  0  0  0  0  0  0  0  0
   11.4118    3.1402    0.0000 N   0  0  0  0  0  0  0  0  0  0  0  0
    8.1654   -1.2466    0.0000 N   0  0  0  0  0  0  0  0  0  0  0  0
    9.1165   -1.5556    0.0000 N   0  0  0  0  0  0  0  0  0  0  0  0
   10.2754   -2.8428    0.0000 N   0  0  0  0  0  0  0  0  0  0  0  0
    8.5812   -3.2029    0.0000 N   0  0  0  0  0  0  0  0  0  0  0  0
    5.3122   -0.3195    0.0000 C   0  0  0  0  0  0  0  0  0  0  0  0
   10.3948    0.7608    0.0000 C   0  0  0  0  0  0  0  0  0  0  0  0
    6.2633   -0.6286    0.0000 C   0  0  0  0  0  0  0  0  0  0  0  0
    9.6517    0.0917    0.0000 C   0  0  0  0  0  0  0  0  0  0  0  0
    5.0032    0.6315    0.0000 C   0  0  0  0  0  0  0  0  0  0  0  0
   11.3730    0.5529    0.0000 C   0  0  0  0  0  0  0  0  0  0  0  0
    7.9575   -0.2684    0.0000 C   0  0  0  0  0  0  0  0  0  0  0  0
    7.0064    0.0406    0.0000 C   0  0  0  0  0  0  0  0  0  0  0  0
    8.7006    0.4007    0.0000 C   0  0  0  0  0  0  0  0  0  0  0  0
    3.6942   -0.3195    0.0000 C   0  0  0  0  0  0  0  0  0  0  0  0
   11.2039    2.1621    0.0000 C   0  0  0  0  0  0  0  0  0  0  0  0
    4.0032    0.6315    0.0000 C   0  0  0  0  0  0  0  0  0  0  0  0
   11.8730    1.4189    0.0000 C   0  0  0  0  0  0  0  0  0  0  0  0
    9.3244   -2.5338    0.0000 C   0  0  0  0  0  0  0  0  0  0  0  0
    6.3922   -1.2350    0.0000 H   0  0  0  0  0  0  0  0  0  0  0  0
    9.7806   -0.5148    0.0000 H   0  0  0  0  0  0  0  0  0  0  0  0
    5.3676    1.1331    0.0000 H   0  0  0  0  0  0  0  0  0  0  0  0
   11.6252   -0.0135    0.0000 H   0  0  0  0  0  0  0  0  0  0  0  0
    6.8775    0.6470    0.0000 H   0  0  0  0  0  0  0  0  0  0  0  0
    8.5717    1.0071    0.0000 H   0  0  0  0  0  0  0  0  0  0  0  0
    3.6388    1.1331    0.0000 H   0  0  0  0  0  0  0  0  0  0  0  0
   12.4896    1.4837    0.0000 H   0  0  0  0  0  0  0  0  0  0  0  0
   10.4043   -3.4492    0.0000 H   0  0  0  0  0  0  0  0  0  0  0  0
   10.7362   -2.4279    0.0000 H   0  0  0  0  0  0  0  0  0  0  0  0
    8.7101   -3.8093    0.0000 H   0  0  0  0  0  0  0  0  0  0  0  0
    7.9916   -3.0113    0.0000 H   0  0  0  0  0  0  0  0  0  0  0  0
  1 13  1  0  0  0  0 
  1 22  1  0  0  0  0 
  2 14  1  0  0  0  0 
  2 23  1  0  0  0  0 
  3  7  1  0  0  0  0 
  4  8  1  0  0  0  0 
  5  7  2  0  0  0  0 
  6  8  2  0  0  0  0 
  7 22  1  0  0  0  0 
  8 23  1  0  0  0  0 
  9 10  1  0  0  0  0 
  9 19  2  0  0  0  0 
 10 26  2  0  0  0  0 
 11 26  1  0  0  0  0 
 11 35  1  0  0  0  0 
 11 36  1  0  0  0  0 
 12 26  1  0  0  0  0 
 12 37  1  0  0  0  0 
 12 38  1  0  0  0  0 
 13 15  1  0  0  0  0 
 13 17  2  0  0  0  0 
 14 16  1  0  0  0  0 
 14 18  2  0  0  0  0 
 15 20  2  0  0  0  0 
 15 27  1  0  0  0  0 
 16 21  2  0  0  0  0 
 16 28  1  0  0  0  0 
 17 24  1  0  0  0  0 
 17 29  1  0  0  0  0 
 18 25  1  0  0  0  0 
 18 30  1  0  0  0  0 
 19 20  1  0  0  0  0 
 19 21  1  0  0  0  0 
 20 31  1  0  0  0  0 
 21 32  1  0  0  0  0 
 22 24  2  0  0  0  0 
 23 25  2  0  0  0  0 
 24 33  1  0  0  0  0 
 25 34  1  0  0  0  0 
M  CHG  1   3  -1
M  CHG  1   4  -1
M  CHG  1   7   1
M  CHG  1   8   1
M  END
> <cdk:Title>
6252910

> <cdk:Remark>
null

> <PUBCHEM_COMPOUND_CID>
6252910

> <PUBCHEM_COMPOUND_CANONICALIZED>
1

> <PUBCHEM_CACTVS_COMPLEXITY>
601

> <PUBCHEM_CACTVS_HBOND_ACCEPTOR>
8

> <PUBCHEM_CACTVS_HBOND_DONOR>
2

> <PUBCHEM_CACTVS_ROTATABLE_BOND>
5

> <PUBCHEM_CACTVS_SUBSKEYS>
AAADccBzuAAAAAAAAAAAAAAAAAAAASJAAAAAAAAAAAAAAAAB4AAAHgAcAAAACAyBkAAxhIBQRECpAaFycwCCCAAsIgAoiAEWbNoMJjKEtZuKGSDkwBEI6Ya8AAAAAAAAAAAAAAAAAAAAAAAAAAAAAAAAAA==

> <PUBCHEM_IUPAC_OPENEYE_NAME>
2-[[(E)-3-(5-nitro-2-furyl)-1-[(E)-2-(5-nitro-2-furyl)vinyl]prop-2-enylidene]amino]guanidine

> <PUBCHEM_IUPAC_CAS_NAME>
2-[[(1E,4E)-1,5-bis(5-nitro-2-furanyl)penta-1,4-dien-3-ylidene]amino]guanidine

> <PUBCHEM_IUPAC_NAME>
2-[[(1E,4E)-1,5-bis(5-nitrofuran-2-yl)penta-1,4-dien-3-ylidene]amino]guanidine

> <PUBCHEM_IUPAC_SYSTEMATIC_NAME>
2-[[(1E,4E)-1,5-bis(5-nitrofuran-2-yl)penta-1,4-dien-3-ylidene]amino]guanidine

> <PUBCHEM_IUPAC_TRADITIONAL_NAME>
2-[[(E)-3-(5-nitro-2-furyl)-1-[(E)-2-(5-nitro-2-furyl)vinyl]prop-2-enylidene]amino]guanidine

> <PUBCHEM_IUPAC_INCHI>
InChI=1S/C14H12N6O6/c15-14(16)18-17-9(1-3-10-5-7-12(25-10)19(21)22)2-4-11-6-8-13(26-11)20(23)24/h1-8H,(H4,15,16,18)/b3-1+,4-2+

> <PUBCHEM_IUPAC_INCHIKEY>
XQCFHQBGMWUEMY-ZPUQHVIOSA-N

> <PUBCHEM_XLOGP3_AA>
1.7

> <PUBCHEM_EXACT_MASS>
360.081832

> <PUBCHEM_MOLECULAR_FORMULA>
C14H12N6O6

> <PUBCHEM_MOLECULAR_WEIGHT>
360.28168

> <PUBCHEM_OPENEYE_CAN_SMILES>
C1=C(OC(=C1)[N+](=O)[O-])C=CC(=NN=C(N)N)C=CC2=CC=C(O2)[N+](=O)[O-]

> <PUBCHEM_OPENEYE_ISO_SMILES>
C1=C(OC(=C1)[N+](=O)[O-])/C=C/C(=NN=C(N)N)/C=C/C2=CC=C(O2)[N+](=O)[O-]

> <PUBCHEM_CACTVS_TPSA>
195

> <PUBCHEM_MONOISOTOPIC_WEIGHT>
360.081832

> <PUBCHEM_TOTAL_CHARGE>
0

> <PUBCHEM_HEAVY_ATOM_COUNT>
26

> <PUBCHEM_ATOM_DEF_STEREO_COUNT>
0

> <PUBCHEM_ATOM_UDEF_STEREO_COUNT>
0

> <PUBCHEM_BOND_DEF_STEREO_COUNT>
2

> <PUBCHEM_BOND_UDEF_STEREO_COUNT>
0

> <PUBCHEM_ISOTOPIC_ATOM_COUNT>
0

> <PUBCHEM_COMPONENT_COUNT>
1

> <PUBCHEM_CACTVS_TAUTO_COUNT>
3

> <PUBCHEM_COORDINATE_TYPE>
1
5
255

> <PUBCHEM_BONDANNOTATIONS>
1  13  8
1  22  8
13  17  8
14  18  8
17  24  8
18  25  8
2  14  8
2  23  8
22  24  8
23  25  8

> <DRUG_ID>
w161

> <DRUG_NAME>
Nitrovin

$$$$
2468
  CDK     0927151942
null
 26 25  0  0  0  0  0  0  0  0999 V2000
    5.1350    0.4400    0.0000 N   0  0  0  0  0  0  0  0  0  0  0  0
    4.2690    1.9400    0.0000 N   0  0  0  0  0  0  0  0  0  0  0  0
    6.0010    1.9400    0.0000 N   0  0  0  0  0  0  0  0  0  0  0  0
    2.5369    1.9400    0.0000 N   0  0  0  0  0  0  0  0  0  0  0  0
    3.4030    0.4400    0.0000 N   0  0  0  0  0  0  0  0  0  0  0  0
    6.0010   -1.0600    0.0000 C   0  0  0  0  0  0  0  0  0  0  0  0
    6.8671   -1.5600    0.0000 C   0  0  0  0  0  0  0  0  0  0  0  0
    6.0010   -0.0600    0.0000 C   0  0  0  0  0  0  0  0  0  0  0  0
    6.8671   -2.5600    0.0000 C   0  0  0  0  0  0  0  0  0  0  0  0
    5.1350    1.4400    0.0000 C   0  0  0  0  0  0  0  0  0  0  0  0
    3.4030    1.4400    0.0000 C   0  0  0  0  0  0  0  0  0  0  0  0
    5.3905   -0.9523    0.0000 H   0  0  0  0  0  0  0  0  0  0  0  0
    5.7890   -1.6426    0.0000 H   0  0  0  0  0  0  0  0  0  0  0  0
    7.4776   -1.6677    0.0000 H   0  0  0  0  0  0  0  0  0  0  0  0
    7.0791   -0.9774    0.0000 H   0  0  0  0  0  0  0  0  0  0  0  0
    6.6116   -0.1677    0.0000 H   0  0  0  0  0  0  0  0  0  0  0  0
    6.2131    0.5226    0.0000 H   0  0  0  0  0  0  0  0  0  0  0  0
    6.2471   -2.5600    0.0000 H   0  0  0  0  0  0  0  0  0  0  0  0
    6.8671   -3.1800    0.0000 H   0  0  0  0  0  0  0  0  0  0  0  0
    7.4871   -2.5600    0.0000 H   0  0  0  0  0  0  0  0  0  0  0  0
    6.5380    1.6300    0.0000 H   0  0  0  0  0  0  0  0  0  0  0  0
    6.0010    2.5600    0.0000 H   0  0  0  0  0  0  0  0  0  0  0  0
    2.8660    0.1300    0.0000 H   0  0  0  0  0  0  0  0  0  0  0  0
    3.9399    0.1300    0.0000 H   0  0  0  0  0  0  0  0  0  0  0  0
    2.0000    1.6300    0.0000 H   0  0  0  0  0  0  0  0  0  0  0  0
    2.5369    2.5600    0.0000 H   0  0  0  0  0  0  0  0  0  0  0  0
  1  8  1  0  0  0  0 
  1 10  2  0  0  0  0 
  2 10  1  0  0  0  0 
  2 11  2  0  0  0  0 
  3 10  1  0  0  0  0 
  3 21  1  0  0  0  0 
  3 22  1  0  0  0  0 
  4 11  1  0  0  0  0 
  4 25  1  0  0  0  0 
  4 26  1  0  0  0  0 
  5 11  1  0  0  0  0 
  5 23  1  0  0  0  0 
  5 24  1  0  0  0  0 
  6  7  1  0  0  0  0 
  6  8  1  0  0  0  0 
  6 12  1  0  0  0  0 
  6 13  1  0  0  0  0 
  7  9  1  0  0  0  0 
  7 14  1  0  0  0  0 
  7 15  1  0  0  0  0 
  8 16  1  0  0  0  0 
  8 17  1  0  0  0  0 
  9 18  1  0  0  0  0 
  9 19  1  0  0  0  0 
  9 20  1  0  0  0  0 
M  END
> <cdk:Title>
2468

> <cdk:Remark>
null

> <PUBCHEM_COMPOUND_CID>
2468

> <PUBCHEM_COMPOUND_CANONICALIZED>
1

> <PUBCHEM_CACTVS_COMPLEXITY>
156

> <PUBCHEM_CACTVS_HBOND_ACCEPTOR>
1

> <PUBCHEM_CACTVS_HBOND_DONOR>
3

> <PUBCHEM_CACTVS_ROTATABLE_BOND>
4

> <PUBCHEM_CACTVS_SUBSKEYS>
AAADccBjgAAAAAAAAAAAAAAAAAAAAAAAAAAAAAAAAAAAAAAAAAAAHAAQAAAACADBAAQDAAJAAAAgAAAAJAAAAAEAAAAAAAAAAAAAAAAAgAAAAAAAAAAAAAAAAAAAAAAAAAAAAAAAAAAAAAAAAAAAAAAAAA==

> <PUBCHEM_IUPAC_OPENEYE_NAME>
2-butyl-1-(diaminomethylene)guanidine

> <PUBCHEM_IUPAC_CAS_NAME>
2-butyl-1-(diaminomethylidene)guanidine

> <PUBCHEM_IUPAC_NAME>
2-butyl-1-(diaminomethylidene)guanidine

> <PUBCHEM_IUPAC_SYSTEMATIC_NAME>
1-[bis(azanyl)methylidene]-2-butyl-guanidine

> <PUBCHEM_IUPAC_TRADITIONAL_NAME>
2-butyl-1-(diaminomethylene)guanidine

> <PUBCHEM_IUPAC_INCHI>
InChI=1S/C6H15N5/c1-2-3-4-10-6(9)11-5(7)8/h2-4H2,1H3,(H6,7,8,9,10,11)

> <PUBCHEM_IUPAC_INCHIKEY>
XSEUMFJMFFMCIU-UHFFFAOYSA-N

> <PUBCHEM_XLOGP3_AA>
-0.6

> <PUBCHEM_EXACT_MASS>
157.132746

> <PUBCHEM_MOLECULAR_FORMULA>
C6H15N5

> <PUBCHEM_MOLECULAR_WEIGHT>
157.2168

> <PUBCHEM_OPENEYE_CAN_SMILES>
CCCCN=C(N)N=C(N)N

> <PUBCHEM_OPENEYE_ISO_SMILES>
CCCCN=C(N)N=C(N)N

> <PUBCHEM_CACTVS_TPSA>
103

> <PUBCHEM_MONOISOTOPIC_WEIGHT>
157.132746

> <PUBCHEM_TOTAL_CHARGE>
0

> <PUBCHEM_HEAVY_ATOM_COUNT>
11

> <PUBCHEM_ATOM_DEF_STEREO_COUNT>
0

> <PUBCHEM_ATOM_UDEF_STEREO_COUNT>
0

> <PUBCHEM_BOND_DEF_STEREO_COUNT>
0

> <PUBCHEM_BOND_UDEF_STEREO_COUNT>
0

> <PUBCHEM_ISOTOPIC_ATOM_COUNT>
0

> <PUBCHEM_COMPONENT_COUNT>
1

> <PUBCHEM_CACTVS_TAUTO_COUNT>
5

> <PUBCHEM_COORDINATE_TYPE>
1
5
255

> <DRUG_ID>
w162

> <DRUG_NAME>
Buformin

$$$$
5379
  CDK     0927151942
null
 49 52  0  0  0  0  0  0  0  0999 V2000
    4.5981    1.4359    0.0000 F   0  0  0  0  0  0  0  0  0  0  0  0
    6.3301   -1.5641    0.0000 O   0  0  0  0  0  0  0  0  0  0  0  0
    8.0785    2.4705    0.0000 O   0  0  0  0  0  0  0  0  0  0  0  0
   10.7282    0.9634    0.0000 O   0  0  0  0  0  0  0  0  0  0  0  0
    9.8564    2.4600    0.0000 O   0  0  0  0  0  0  0  0  0  0  0  0
    8.0901   -0.5988    0.0000 N   0  0  0  0  0  0  0  0  0  0  0  0
    4.5981   -0.5641    0.0000 N   0  0  3  0  0  0  0  0  0  0  0  0
    2.8660   -1.5641    0.0000 N   0  0  0  0  0  0  0  0  0  0  0  0
    8.0785   -1.5987    0.0000 C   0  0  0  0  0  0  0  0  0  0  0  0
    7.5686   -2.4589    0.0000 C   0  0  0  0  0  0  0  0  0  0  0  0
    8.5685   -2.4705    0.0000 C   0  0  0  0  0  0  0  0  0  0  0  0
    7.1962   -0.0641    0.0000 C   0  0  0  0  0  0  0  0  0  0  0  0
    8.9962   -0.0849    0.0000 C   0  0  0  0  0  0  0  0  0  0  0  0
    6.3301   -0.5641    0.0000 C   0  0  0  0  0  0  0  0  0  0  0  0
    7.1962    0.9359    0.0000 C   0  0  0  0  0  0  0  0  0  0  0  0
    5.4641   -0.0641    0.0000 C   0  0  0  0  0  0  0  0  0  0  0  0
    3.7320   -0.0641    0.0000 C   0  0  0  0  0  0  0  0  0  0  0  0
    2.8660   -0.5641    0.0000 C   0  0  3  0  0  0  0  0  0  0  0  0
    4.5981   -1.5641    0.0000 C   0  0  0  0  0  0  0  0  0  0  0  0
    3.7320   -2.0641    0.0000 C   0  0  0  0  0  0  0  0  0  0  0  0
    8.9962    0.9567    0.0000 C   0  0  0  0  0  0  0  0  0  0  0  0
    8.0901    1.4705    0.0000 C   0  0  0  0  0  0  0  0  0  0  0  0
    6.3301    1.4359    0.0000 C   0  0  0  0  0  0  0  0  0  0  0  0
    5.4641    0.9359    0.0000 C   0  0  0  0  0  0  0  0  0  0  0  0
    2.0000   -0.0641    0.0000 C   0  0  0  0  0  0  0  0  0  0  0  0
    9.8602    1.4600    0.0000 C   0  0  0  0  0  0  0  0  0  0  0  0
    5.4641   -2.0641    0.0000 C   0  0  0  0  0  0  0  0  0  0  0  0
    8.6792   -1.4452    0.0000 H   0  0  0  0  0  0  0  0  0  0  0  0
    8.6691   -3.0822    0.0000 H   0  0  0  0  0  0  0  0  0  0  0  0
    9.1535   -2.2652    0.0000 H   0  0  0  0  0  0  0  0  0  0  0  0
    6.9884   -2.2401    0.0000 H   0  0  0  0  0  0  0  0  0  0  0  0
    7.4538   -3.0682    0.0000 H   0  0  0  0  0  0  0  0  0  0  0  0
    9.5319   -0.3970    0.0000 H   0  0  0  0  0  0  0  0  0  0  0  0
    4.1306    0.4108    0.0000 H   0  0  0  0  0  0  0  0  0  0  0  0
    3.3335    0.4108    0.0000 H   0  0  0  0  0  0  0  0  0  0  0  0
    2.3291   -0.8741    0.0000 H   0  0  0  0  0  0  0  0  0  0  0  0
    4.8101   -2.1467    0.0000 H   0  0  0  0  0  0  0  0  0  0  0  0
    5.2087   -1.4565    0.0000 H   0  0  0  0  0  0  0  0  0  0  0  0
    3.3335   -2.5391    0.0000 H   0  0  0  0  0  0  0  0  0  0  0  0
    4.1306   -2.5391    0.0000 H   0  0  0  0  0  0  0  0  0  0  0  0
    2.3291   -1.8741    0.0000 H   0  0  0  0  0  0  0  0  0  0  0  0
    6.3301    2.0559    0.0000 H   0  0  0  0  0  0  0  0  0  0  0  0
    2.3100    0.4728    0.0000 H   0  0  0  0  0  0  0  0  0  0  0  0
    1.4631    0.2459    0.0000 H   0  0  0  0  0  0  0  0  0  0  0  0
    1.6900   -0.6011    0.0000 H   0  0  0  0  0  0  0  0  0  0  0  0
    5.1541   -1.5272    0.0000 H   0  0  0  0  0  0  0  0  0  0  0  0
    4.9272   -2.3741    0.0000 H   0  0  0  0  0  0  0  0  0  0  0  0
    5.7741   -2.6011    0.0000 H   0  0  0  0  0  0  0  0  0  0  0  0
   11.2639    1.2754    0.0000 H   0  0  0  0  0  0  0  0  0  0  0  0
  1 24  1  0  0  0  0 
  2 14  1  0  0  0  0 
  2 27  1  0  0  0  0 
  3 22  2  0  0  0  0 
  4 26  1  0  0  0  0 
  4 49  1  0  0  0  0 
  5 26  2  0  0  0  0 
  6  9  1  0  0  0  0 
  6 12  1  0  0  0  0 
  6 13  1  0  0  0  0 
  7 16  1  0  0  0  0 
  7 17  1  0  0  0  0 
  7 19  1  0  0  0  0 
  8 18  1  0  0  0  0 
  8 20  1  0  0  0  0 
  8 41  1  0  0  0  0 
  9 10  1  0  0  0  0 
  9 11  1  0  0  0  0 
  9 28  1  0  0  0  0 
 10 11  1  0  0  0  0 
 10 31  1  0  0  0  0 
 10 32  1  0  0  0  0 
 11 29  1  0  0  0  0 
 11 30  1  0  0  0  0 
 12 14  2  0  0  0  0 
 12 15  1  0  0  0  0 
 13 21  2  0  0  0  0 
 13 33  1  0  0  0  0 
 14 16  1  0  0  0  0 
 15 22  1  0  0  0  0 
 15 23  2  0  0  0  0 
 16 24  2  0  0  0  0 
 17 18  1  0  0  0  0 
 17 34  1  0  0  0  0 
 17 35  1  0  0  0  0 
 18 25  1  0  0  0  0 
 18 36  1  0  0  0  0 
 19 20  1  0  0  0  0 
 19 37  1  0  0  0  0 
 19 38  1  0  0  0  0 
 20 39  1  0  0  0  0 
 20 40  1  0  0  0  0 
 21 22  1  0  0  0  0 
 21 26  1  0  0  0  0 
 23 24  1  0  0  0  0 
 23 42  1  0  0  0  0 
 25 43  1  0  0  0  0 
 25 44  1  0  0  0  0 
 25 45  1  0  0  0  0 
 27 46  1  0  0  0  0 
 27 47  1  0  0  0  0 
 27 48  1  0  0  0  0 
M  END
> <cdk:Title>
5379

> <cdk:Remark>
null

> <PUBCHEM_COMPOUND_CID>
5379

> <PUBCHEM_COMPOUND_CANONICALIZED>
1

> <PUBCHEM_CACTVS_COMPLEXITY>
653

> <PUBCHEM_CACTVS_HBOND_ACCEPTOR>
8

> <PUBCHEM_CACTVS_HBOND_DONOR>
2

> <PUBCHEM_CACTVS_ROTATABLE_BOND>
4

> <PUBCHEM_CACTVS_SUBSKEYS>
AAADceB7OQAAAAAAAAAAAAAAGAAAAAAAAAA8QIAAAAAAAACBAAAAHwAQCAAADCzBmA4yzoPABgCIAqTWSACCCAAlIAAAiIENTMgOZj7M9NuVcahk8BHY+cea2bOeCAABAAQCEAAQAAIACAQgAAAAAAAAAA==

> <PUBCHEM_IUPAC_OPENEYE_NAME>
1-cyclopropyl-6-fluoro-8-methoxy-7-(3-methylpiperazin-1-yl)-4-oxo-quinoline-3-carboxylic acid

> <PUBCHEM_IUPAC_CAS_NAME>
1-cyclopropyl-6-fluoro-8-methoxy-7-(3-methyl-1-piperazinyl)-4-oxo-3-quinolinecarboxylic acid

> <PUBCHEM_IUPAC_NAME>
1-cyclopropyl-6-fluoro-8-methoxy-7-(3-methylpiperazin-1-yl)-4-oxoquinoline-3-carboxylic acid

> <PUBCHEM_IUPAC_SYSTEMATIC_NAME>
1-cyclopropyl-6-fluoranyl-8-methoxy-7-(3-methylpiperazin-1-yl)-4-oxidanylidene-quinoline-3-carboxylic acid

> <PUBCHEM_IUPAC_TRADITIONAL_NAME>
1-cyclopropyl-6-fluoro-4-keto-8-methoxy-7-(3-methylpiperazino)quinoline-3-carboxylic acid

> <PUBCHEM_IUPAC_INCHI>
InChI=1S/C19H22FN3O4/c1-10-8-22(6-5-21-10)16-14(20)7-12-15(18(16)27-2)23(11-3-4-11)9-13(17(12)24)19(25)26/h7,9-11,21H,3-6,8H2,1-2H3,(H,25,26)

> <PUBCHEM_IUPAC_INCHIKEY>
XUBOMFCQGDBHNK-UHFFFAOYSA-N

> <PUBCHEM_XLOGP3>
-0.7

> <PUBCHEM_EXACT_MASS>
375.159434

> <PUBCHEM_MOLECULAR_FORMULA>
C19H22FN3O4

> <PUBCHEM_MOLECULAR_WEIGHT>
375.394083

> <PUBCHEM_OPENEYE_CAN_SMILES>
CC1CN(CCN1)C2=C(C=C3C(=C2OC)N(C=C(C3=O)C(=O)O)C4CC4)F

> <PUBCHEM_OPENEYE_ISO_SMILES>
CC1CN(CCN1)C2=C(C=C3C(=C2OC)N(C=C(C3=O)C(=O)O)C4CC4)F

> <PUBCHEM_CACTVS_TPSA>
82.1

> <PUBCHEM_MONOISOTOPIC_WEIGHT>
375.159434

> <PUBCHEM_TOTAL_CHARGE>
0

> <PUBCHEM_HEAVY_ATOM_COUNT>
27

> <PUBCHEM_ATOM_DEF_STEREO_COUNT>
0

> <PUBCHEM_ATOM_UDEF_STEREO_COUNT>
1

> <PUBCHEM_BOND_DEF_STEREO_COUNT>
0

> <PUBCHEM_BOND_UDEF_STEREO_COUNT>
0

> <PUBCHEM_ISOTOPIC_ATOM_COUNT>
0

> <PUBCHEM_COMPONENT_COUNT>
1

> <PUBCHEM_CACTVS_TAUTO_COUNT>
1

> <PUBCHEM_COORDINATE_TYPE>
1
5
255

> <PUBCHEM_BONDANNOTATIONS>
12  14  8
12  15  8
13  21  8
14  16  8
15  22  8
15  23  8
16  24  8
18  25  3
21  22  8
23  24  8
6  12  8
6  13  8

> <DRUG_ID>
w163

> <DRUG_NAME>
Gatifloxacin

$$$$
9570475
  CDK     0927151942
null
 40 41  0  0  0  0  0  0  0  0999 V2000
    5.4641   -1.1550    0.0000 O   0  0  0  0  0  0  0  0  0  0  0  0
    5.4641   -3.1550    0.0000 O   0  0  0  0  0  0  0  0  0  0  0  0
    6.3301    4.3450    0.0000 O   0  0  0  0  0  0  0  0  0  0  0  0
    3.7320   -3.1550    0.0000 N   0  0  0  0  0  0  0  0  0  0  0  0
    6.3301    3.3450    0.0000 N   0  0  0  0  0  0  0  0  0  0  0  0
    2.0000   -4.1550    0.0000 C   0  0  0  0  0  0  0  0  0  0  0  0
    2.0000   -3.1550    0.0000 C   0  0  0  0  0  0  0  0  0  0  0  0
    2.8660   -4.6550    0.0000 C   0  0  0  0  0  0  0  0  0  0  0  0
    2.8660   -2.6550    0.0000 C   0  0  0  0  0  0  0  0  0  0  0  0
    3.7320   -4.1550    0.0000 C   0  0  0  0  0  0  0  0  0  0  0  0
    4.5981   -2.6550    0.0000 C   0  0  0  0  0  0  0  0  0  0  0  0
    4.5981   -1.6550    0.0000 C   0  0  0  0  0  0  0  0  0  0  0  0
    5.4641   -0.1550    0.0000 C   0  0  0  0  0  0  0  0  0  0  0  0
    6.3301    0.3450    0.0000 C   0  0  0  0  0  0  0  0  0  0  0  0
    4.5981    0.3450    0.0000 C   0  0  0  0  0  0  0  0  0  0  0  0
    5.4641    1.8450    0.0000 C   0  0  0  0  0  0  0  0  0  0  0  0
    6.3301    1.3450    0.0000 C   0  0  0  0  0  0  0  0  0  0  0  0
    4.5981    1.3450    0.0000 C   0  0  0  0  0  0  0  0  0  0  0  0
    5.4641    2.8450    0.0000 C   0  0  0  0  0  0  0  0  0  0  0  0
    4.5981    3.3450    0.0000 C   0  0  0  0  0  0  0  0  0  0  0  0
    1.3894   -4.0473    0.0000 H   0  0  0  0  0  0  0  0  0  0  0  0
    1.7880   -4.7376    0.0000 H   0  0  0  0  0  0  0  0  0  0  0  0
    1.7880   -2.5724    0.0000 H   0  0  0  0  0  0  0  0  0  0  0  0
    1.3894   -3.2627    0.0000 H   0  0  0  0  0  0  0  0  0  0  0  0
    2.4675   -5.1300    0.0000 H   0  0  0  0  0  0  0  0  0  0  0  0
    3.2646   -5.1300    0.0000 H   0  0  0  0  0  0  0  0  0  0  0  0
    3.2646   -2.1800    0.0000 H   0  0  0  0  0  0  0  0  0  0  0  0
    2.4675   -2.1800    0.0000 H   0  0  0  0  0  0  0  0  0  0  0  0
    3.9441   -4.7376    0.0000 H   0  0  0  0  0  0  0  0  0  0  0  0
    4.3426   -4.0473    0.0000 H   0  0  0  0  0  0  0  0  0  0  0  0
    4.3860   -1.0724    0.0000 H   0  0  0  0  0  0  0  0  0  0  0  0
    3.9875   -1.7627    0.0000 H   0  0  0  0  0  0  0  0  0  0  0  0
    6.8671    0.0350    0.0000 H   0  0  0  0  0  0  0  0  0  0  0  0
    4.0611    0.0350    0.0000 H   0  0  0  0  0  0  0  0  0  0  0  0
    6.8671    1.6550    0.0000 H   0  0  0  0  0  0  0  0  0  0  0  0
    4.0611    1.6550    0.0000 H   0  0  0  0  0  0  0  0  0  0  0  0
    4.9081    3.8819    0.0000 H   0  0  0  0  0  0  0  0  0  0  0  0
    4.0611    3.6550    0.0000 H   0  0  0  0  0  0  0  0  0  0  0  0
    4.2881    2.8081    0.0000 H   0  0  0  0  0  0  0  0  0  0  0  0
    6.8671    4.6550    0.0000 H   0  0  0  0  0  0  0  0  0  0  0  0
  1 12  1  0  0  0  0 
  1 13  1  0  0  0  0 
  2 11  2  0  0  0  0 
  3  5  1  0  0  0  0 
  3 40  1  0  0  0  0 
  4  9  1  0  0  0  0 
  4 10  1  0  0  0  0 
  4 11  1  0  0  0  0 
  5 19  2  0  0  0  0 
  6  7  1  0  0  0  0 
  6  8  1  0  0  0  0 
  6 21  1  0  0  0  0 
  6 22  1  0  0  0  0 
  7  9  1  0  0  0  0 
  7 23  1  0  0  0  0 
  7 24  1  0  0  0  0 
  8 10  1  0  0  0  0 
  8 25  1  0  0  0  0 
  8 26  1  0  0  0  0 
  9 27  1  0  0  0  0 
  9 28  1  0  0  0  0 
 10 29  1  0  0  0  0 
 10 30  1  0  0  0  0 
 11 12  1  0  0  0  0 
 12 31  1  0  0  0  0 
 12 32  1  0  0  0  0 
 13 14  2  0  0  0  0 
 13 15  1  0  0  0  0 
 14 17  1  0  0  0  0 
 14 33  1  0  0  0  0 
 15 18  2  0  0  0  0 
 15 34  1  0  0  0  0 
 16 17  2  0  0  0  0 
 16 18  1  0  0  0  0 
 16 19  1  0  0  0  0 
 17 35  1  0  0  0  0 
 18 36  1  0  0  0  0 
 19 20  1  0  0  0  0 
 20 37  1  0  0  0  0 
 20 38  1  0  0  0  0 
 20 39  1  0  0  0  0 
M  END
> <cdk:Title>
9570475

> <cdk:Remark>
null

> <PUBCHEM_COMPOUND_CID>
9570475

> <PUBCHEM_COMPOUND_CANONICALIZED>
1

> <PUBCHEM_CACTVS_COMPLEXITY>
343

> <PUBCHEM_CACTVS_HBOND_ACCEPTOR>
4

> <PUBCHEM_CACTVS_HBOND_DONOR>
1

> <PUBCHEM_CACTVS_ROTATABLE_BOND>
4

> <PUBCHEM_CACTVS_SUBSKEYS>
AAADceBzMAAAAAAAAAAAAAAAAAAAAAAAAAA8QAAAAAAAAAABAAAAHgAECAAADAzhmAYyBoMQBACoAyFyEAICCAAgIAAIiAB+CJgOJqKEsR6HOCCkxhGYqAeQwIAOIAAAAAAAAABAAAAAAAAAAAAAAAAAAA==

> <PUBCHEM_IUPAC_OPENEYE_NAME>
2-[4-[(E)-N-hydroxy-C-methyl-carbonimidoyl]phenoxy]-1-(1-piperidyl)ethanone

> <PUBCHEM_IUPAC_CAS_NAME>
2-[4-[(1E)-1-hydroxyiminoethyl]phenoxy]-1-(1-piperidinyl)ethanone

> <PUBCHEM_IUPAC_NAME>
2-[4-[(E)-N-hydroxy-C-methylcarbonimidoyl]phenoxy]-1-piperidin-1-ylethanone

> <PUBCHEM_IUPAC_SYSTEMATIC_NAME>
2-[4-[(E)-C-methyl-N-oxidanyl-carbonimidoyl]phenoxy]-1-piperidin-1-yl-ethanone

> <PUBCHEM_IUPAC_TRADITIONAL_NAME>
2-(4-acetohydroximoylphenoxy)-1-piperidino-ethanone

> <PUBCHEM_IUPAC_INCHI>
InChI=1S/C15H20N2O3/c1-12(16-19)13-5-7-14(8-6-13)20-11-15(18)17-9-3-2-4-10-17/h5-8,19H,2-4,9-11H2,1H3/b16-12+

> <PUBCHEM_IUPAC_INCHIKEY>
XUDSQIDNHJMBBW-FOWTUZBSSA-N

> <PUBCHEM_XLOGP3>
1.8

> <PUBCHEM_EXACT_MASS>
276.147393

> <PUBCHEM_MOLECULAR_FORMULA>
C15H20N2O3

> <PUBCHEM_MOLECULAR_WEIGHT>
276.3309

> <PUBCHEM_OPENEYE_CAN_SMILES>
CC(=NO)C1=CC=C(C=C1)OCC(=O)N2CCCCC2

> <PUBCHEM_OPENEYE_ISO_SMILES>
C/C(=N\O)/C1=CC=C(C=C1)OCC(=O)N2CCCCC2

> <PUBCHEM_CACTVS_TPSA>
62.1

> <PUBCHEM_MONOISOTOPIC_WEIGHT>
276.147393

> <PUBCHEM_TOTAL_CHARGE>
0

> <PUBCHEM_HEAVY_ATOM_COUNT>
20

> <PUBCHEM_ATOM_DEF_STEREO_COUNT>
0

> <PUBCHEM_ATOM_UDEF_STEREO_COUNT>
0

> <PUBCHEM_BOND_DEF_STEREO_COUNT>
1

> <PUBCHEM_BOND_UDEF_STEREO_COUNT>
0

> <PUBCHEM_ISOTOPIC_ATOM_COUNT>
0

> <PUBCHEM_COMPONENT_COUNT>
1

> <PUBCHEM_CACTVS_TAUTO_COUNT>
3

> <PUBCHEM_COORDINATE_TYPE>
1
5
255

> <PUBCHEM_BONDANNOTATIONS>
13  14  8
13  15  8
14  17  8
15  18  8
16  17  8
16  18  8

> <DRUG_ID>
w164

> <DRUG_NAME>
Pifoxime

$$$$
4528
  CDK     0927151942
null
 36 38  0  0  0  0  0  0  0  0999 V2000
    2.8660    1.3246    0.0000 N   0  0  3  0  0  0  0  0  0  0  0  0
    5.4804    2.8592    0.0000 N   0  0  0  0  0  0  0  0  0  0  0  0
    3.7320   -0.1754    0.0000 C   0  0  3  0  0  0  0  0  0  0  0  0
    2.8660    0.3246    0.0000 C   0  0  0  0  0  0  0  0  0  0  0  0
    4.5981    0.3246    0.0000 C   0  0  0  0  0  0  0  0  0  0  0  0
    3.7320    1.8246    0.0000 C   0  0  0  0  0  0  0  0  0  0  0  0
    4.5981    1.3246    0.0000 C   0  0  0  0  0  0  0  0  0  0  0  0
    3.7320   -1.1754    0.0000 C   0  0  0  0  0  0  0  0  0  0  0  0
    5.4920    1.8593    0.0000 C   0  0  0  0  0  0  0  0  0  0  0  0
    5.4920   -0.2101    0.0000 C   0  0  0  0  0  0  0  0  0  0  0  0
    2.0000    1.8246    0.0000 C   0  0  0  0  0  0  0  0  0  0  0  0
    6.3981    1.3454    0.0000 C   0  0  0  0  0  0  0  0  0  0  0  0
    2.8660   -1.6754    0.0000 C   0  0  0  0  0  0  0  0  0  0  0  0
    4.5981   -1.6754    0.0000 C   0  0  0  0  0  0  0  0  0  0  0  0
    6.3981    0.3038    0.0000 C   0  0  0  0  0  0  0  0  0  0  0  0
    2.8660   -2.6754    0.0000 C   0  0  0  0  0  0  0  0  0  0  0  0
    4.5981   -2.6754    0.0000 C   0  0  0  0  0  0  0  0  0  0  0  0
    3.7320   -3.1754    0.0000 C   0  0  0  0  0  0  0  0  0  0  0  0
    2.9959   -0.6004    0.0000 H   0  0  0  0  0  0  0  0  0  0  0  0
    2.2554    0.4323    0.0000 H   0  0  0  0  0  0  0  0  0  0  0  0
    2.6540   -0.2580    0.0000 H   0  0  0  0  0  0  0  0  0  0  0  0
    4.1306    2.2996    0.0000 H   0  0  0  0  0  0  0  0  0  0  0  0
    3.3335    2.2996    0.0000 H   0  0  0  0  0  0  0  0  0  0  0  0
    5.4848   -0.8300    0.0000 H   0  0  0  0  0  0  0  0  0  0  0  0
    2.3100    2.3615    0.0000 H   0  0  0  0  0  0  0  0  0  0  0  0
    1.4631    2.1346    0.0000 H   0  0  0  0  0  0  0  0  0  0  0  0
    1.6900    1.2877    0.0000 H   0  0  0  0  0  0  0  0  0  0  0  0
    6.9338    1.6575    0.0000 H   0  0  0  0  0  0  0  0  0  0  0  0
    2.3291   -1.3654    0.0000 H   0  0  0  0  0  0  0  0  0  0  0  0
    5.1350   -1.3654    0.0000 H   0  0  0  0  0  0  0  0  0  0  0  0
    6.9338   -0.0083    0.0000 H   0  0  0  0  0  0  0  0  0  0  0  0
    6.0138    3.1754    0.0000 H   0  0  0  0  0  0  0  0  0  0  0  0
    4.9400    3.1630    0.0000 H   0  0  0  0  0  0  0  0  0  0  0  0
    2.3291   -2.9854    0.0000 H   0  0  0  0  0  0  0  0  0  0  0  0
    5.1350   -2.9854    0.0000 H   0  0  0  0  0  0  0  0  0  0  0  0
    3.7320   -3.7954    0.0000 H   0  0  0  0  0  0  0  0  0  0  0  0
  1  4  1  0  0  0  0 
  1  6  1  0  0  0  0 
  1 11  1  0  0  0  0 
  2  9  1  0  0  0  0 
  2 32  1  0  0  0  0 
  2 33  1  0  0  0  0 
  3  4  1  0  0  0  0 
  3  5  1  0  0  0  0 
  3  8  1  0  0  0  0 
  3 19  1  0  0  0  0 
  4 20  1  0  0  0  0 
  4 21  1  0  0  0  0 
  5  7  2  0  0  0  0 
  5 10  1  0  0  0  0 
  6  7  1  0  0  0  0 
  6 22  1  0  0  0  0 
  6 23  1  0  0  0  0 
  7  9  1  0  0  0  0 
  8 13  2  0  0  0  0 
  8 14  1  0  0  0  0 
  9 12  2  0  0  0  0 
 10 15  2  0  0  0  0 
 10 24  1  0  0  0  0 
 11 25  1  0  0  0  0 
 11 26  1  0  0  0  0 
 11 27  1  0  0  0  0 
 12 15  1  0  0  0  0 
 12 28  1  0  0  0  0 
 13 16  1  0  0  0  0 
 13 29  1  0  0  0  0 
 14 17  2  0  0  0  0 
 14 30  1  0  0  0  0 
 15 31  1  0  0  0  0 
 16 18  2  0  0  0  0 
 16 34  1  0  0  0  0 
 17 18  1  0  0  0  0 
 17 35  1  0  0  0  0 
 18 36  1  0  0  0  0 
M  END
> <cdk:Title>
4528

> <cdk:Remark>
null

> <PUBCHEM_COMPOUND_CID>
4528

> <PUBCHEM_COMPOUND_CANONICALIZED>
1

> <PUBCHEM_CACTVS_COMPLEXITY>
272

> <PUBCHEM_CACTVS_HBOND_ACCEPTOR>
2

> <PUBCHEM_CACTVS_HBOND_DONOR>
1

> <PUBCHEM_CACTVS_ROTATABLE_BOND>
1

> <PUBCHEM_CACTVS_SUBSKEYS>
AAADceB7AAAAAAAAAAAAAAAAAAAAAAAAAAA8YIAAAAAAAACxQAAAHAAQAAAADQjBGAQywINAAACAAiRCQACCAAAgAgAIiAAIZIgIICKA0ZGEIAhgkACIyAcQgMAOgAAAQAASAAAAAACAACQAAAAAAAAAAA==

> <PUBCHEM_IUPAC_OPENEYE_NAME>
2-methyl-4-phenyl-3,4-dihydro-1H-isoquinolin-8-amine

> <PUBCHEM_IUPAC_CAS_NAME>
2-methyl-4-phenyl-3,4-dihydro-1H-isoquinolin-8-amine

> <PUBCHEM_IUPAC_NAME>
2-methyl-4-phenyl-3,4-dihydro-1H-isoquinolin-8-amine

> <PUBCHEM_IUPAC_SYSTEMATIC_NAME>
2-methyl-4-phenyl-3,4-dihydro-1H-isoquinolin-8-amine

> <PUBCHEM_IUPAC_TRADITIONAL_NAME>
(2-methyl-4-phenyl-3,4-dihydro-1H-isoquinolin-8-yl)amine

> <PUBCHEM_IUPAC_INCHI>
InChI=1S/C16H18N2/c1-18-10-14(12-6-3-2-4-7-12)13-8-5-9-16(17)15(13)11-18/h2-9,14H,10-11,17H2,1H3

> <PUBCHEM_IUPAC_INCHIKEY>
XXPANQJNYNUNES-UHFFFAOYSA-N

> <PUBCHEM_XLOGP3_AA>
2.6

> <PUBCHEM_EXACT_MASS>
238.146999

> <PUBCHEM_MOLECULAR_FORMULA>
C16H18N2

> <PUBCHEM_MOLECULAR_WEIGHT>
238.32752

> <PUBCHEM_OPENEYE_CAN_SMILES>
CN1CC(C2=C(C1)C(=CC=C2)N)C3=CC=CC=C3

> <PUBCHEM_OPENEYE_ISO_SMILES>
CN1CC(C2=C(C1)C(=CC=C2)N)C3=CC=CC=C3

> <PUBCHEM_CACTVS_TPSA>
29.3

> <PUBCHEM_MONOISOTOPIC_WEIGHT>
238.146999

> <PUBCHEM_TOTAL_CHARGE>
0

> <PUBCHEM_HEAVY_ATOM_COUNT>
18

> <PUBCHEM_ATOM_DEF_STEREO_COUNT>
0

> <PUBCHEM_ATOM_UDEF_STEREO_COUNT>
1

> <PUBCHEM_BOND_DEF_STEREO_COUNT>
0

> <PUBCHEM_BOND_UDEF_STEREO_COUNT>
0

> <PUBCHEM_ISOTOPIC_ATOM_COUNT>
0

> <PUBCHEM_COMPONENT_COUNT>
1

> <PUBCHEM_CACTVS_TAUTO_COUNT>
1

> <PUBCHEM_COORDINATE_TYPE>
1
5
255

> <PUBCHEM_BONDANNOTATIONS>
10  15  8
12  15  8
13  16  8
14  17  8
16  18  8
17  18  8
3  19  3
5  10  8
5  7  8
7  9  8
8  13  8
8  14  8
9  12  8

> <DRUG_ID>
w165

> <DRUG_NAME>
Nomifensine

$$$$
77999
  CDK     0927151942
null
 44 46  0  0  0  0  0  0  0  0999 V2000
    6.3776    3.4588    0.0000 S   0  0  0  0  0  0  0  0  0  0  0  0
    4.5981   -0.6344    0.0000 O   0  0  0  0  0  0  0  0  0  0  0  0
    4.8255    5.5292    0.0000 O   0  0  0  0  0  0  0  0  0  0  0  0
    8.0413    4.0975    0.0000 O   0  0  0  0  0  0  0  0  0  0  0  0
    2.8660   -2.6344    0.0000 N   0  0  3  0  0  0  0  0  0  0  0  0
    6.5468    5.0680    0.0000 N   0  0  0  0  0  0  0  0  0  0  0  0
    3.7320   -4.1344    0.0000 N   0  0  0  0  0  0  0  0  0  0  0  0
    5.4641    3.8656    0.0000 C   0  0  3  0  0  0  0  0  0  0  0  0
    4.5981    3.3656    0.0000 C   0  0  0  0  0  0  0  0  0  0  0  0
    4.5981    2.3656    0.0000 C   0  0  0  0  0  0  0  0  0  0  0  0
    5.5686    4.8601    0.0000 C   0  0  0  0  0  0  0  0  0  0  0  0
    3.7320   -2.1344    0.0000 C   0  0  0  0  0  0  0  0  0  0  0  0
    3.7320    1.8656    0.0000 C   0  0  0  0  0  0  0  0  0  0  0  0
    5.4641    1.8656    0.0000 C   0  0  0  0  0  0  0  0  0  0  0  0
    3.7320   -1.1344    0.0000 C   0  0  0  0  0  0  0  0  0  0  0  0
    4.5981    0.3656    0.0000 C   0  0  0  0  0  0  0  0  0  0  0  0
    3.7320    0.8656    0.0000 C   0  0  0  0  0  0  0  0  0  0  0  0
    5.4641    0.8656    0.0000 C   0  0  0  0  0  0  0  0  0  0  0  0
    7.0468    4.2020    0.0000 C   0  0  0  0  0  0  0  0  0  0  0  0
    2.8660   -3.6344    0.0000 C   0  0  0  0  0  0  0  0  0  0  0  0
    2.0000   -2.1344    0.0000 C   0  0  0  0  0  0  0  0  0  0  0  0
    2.0000   -4.1344    0.0000 C   0  0  0  0  0  0  0  0  0  0  0  0
    2.0000   -5.1344    0.0000 C   0  0  0  0  0  0  0  0  0  0  0  0
    3.7320   -5.1344    0.0000 C   0  0  0  0  0  0  0  0  0  0  0  0
    2.8660   -5.6344    0.0000 C   0  0  0  0  0  0  0  0  0  0  0  0
    5.4966    3.2464    0.0000 H   0  0  0  0  0  0  0  0  0  0  0  0
    4.3860    3.9482    0.0000 H   0  0  0  0  0  0  0  0  0  0  0  0
    3.9875    3.2579    0.0000 H   0  0  0  0  0  0  0  0  0  0  0  0
    3.9441   -2.7170    0.0000 H   0  0  0  0  0  0  0  0  0  0  0  0
    4.3426   -2.0268    0.0000 H   0  0  0  0  0  0  0  0  0  0  0  0
    3.1951    2.1756    0.0000 H   0  0  0  0  0  0  0  0  0  0  0  0
    6.0010    2.1756    0.0000 H   0  0  0  0  0  0  0  0  0  0  0  0
    3.5200   -0.5518    0.0000 H   0  0  0  0  0  0  0  0  0  0  0  0
    3.1215   -1.2421    0.0000 H   0  0  0  0  0  0  0  0  0  0  0  0
    3.1951    0.5556    0.0000 H   0  0  0  0  0  0  0  0  0  0  0  0
    6.0010    0.5556    0.0000 H   0  0  0  0  0  0  0  0  0  0  0  0
    6.7990    5.6344    0.0000 H   0  0  0  0  0  0  0  0  0  0  0  0
    2.3100   -1.5975    0.0000 H   0  0  0  0  0  0  0  0  0  0  0  0
    1.4631   -1.8244    0.0000 H   0  0  0  0  0  0  0  0  0  0  0  0
    1.6900   -2.6714    0.0000 H   0  0  0  0  0  0  0  0  0  0  0  0
    1.4631   -3.8244    0.0000 H   0  0  0  0  0  0  0  0  0  0  0  0
    1.4631   -5.4444    0.0000 H   0  0  0  0  0  0  0  0  0  0  0  0
    4.2690   -5.4444    0.0000 H   0  0  0  0  0  0  0  0  0  0  0  0
    2.8660   -6.2544    0.0000 H   0  0  0  0  0  0  0  0  0  0  0  0
  1  8  1  0  0  0  0 
  1 19  1  0  0  0  0 
  2 15  1  0  0  0  0 
  2 16  1  0  0  0  0 
  3 11  2  0  0  0  0 
  4 19  2  0  0  0  0 
  5 12  1  0  0  0  0 
  5 20  1  0  0  0  0 
  5 21  1  0  0  0  0 
  6 11  1  0  0  0  0 
  6 19  1  0  0  0  0 
  6 37  1  0  0  0  0 
  7 20  1  0  0  0  0 
  7 24  2  0  0  0  0 
  8  9  1  0  0  0  0 
  8 11  1  0  0  0  0 
  8 26  1  0  0  0  0 
  9 10  1  0  0  0  0 
  9 27  1  0  0  0  0 
  9 28  1  0  0  0  0 
 10 13  2  0  0  0  0 
 10 14  1  0  0  0  0 
 12 15  1  0  0  0  0 
 12 29  1  0  0  0  0 
 12 30  1  0  0  0  0 
 13 17  1  0  0  0  0 
 13 31  1  0  0  0  0 
 14 18  2  0  0  0  0 
 14 32  1  0  0  0  0 
 15 33  1  0  0  0  0 
 15 34  1  0  0  0  0 
 16 17  2  0  0  0  0 
 16 18  1  0  0  0  0 
 17 35  1  0  0  0  0 
 18 36  1  0  0  0  0 
 20 22  2  0  0  0  0 
 21 38  1  0  0  0  0 
 21 39  1  0  0  0  0 
 21 40  1  0  0  0  0 
 22 23  1  0  0  0  0 
 22 41  1  0  0  0  0 
 23 25  2  0  0  0  0 
 23 42  1  0  0  0  0 
 24 25  1  0  0  0  0 
 24 43  1  0  0  0  0 
 25 44  1  0  0  0  0 
M  END
> <cdk:Title>
77999

> <cdk:Remark>
null

> <PUBCHEM_COMPOUND_CID>
77999

> <PUBCHEM_COMPOUND_CANONICALIZED>
1

> <PUBCHEM_CACTVS_COMPLEXITY>
469

> <PUBCHEM_CACTVS_HBOND_ACCEPTOR>
6

> <PUBCHEM_CACTVS_HBOND_DONOR>
1

> <PUBCHEM_CACTVS_ROTATABLE_BOND>
7

> <PUBCHEM_CACTVS_SUBSKEYS>
AAADceB7MABAAAAAAAAAAAAAAAAAAWAAAAA8QAAAAAAAAAABwAAAHgQQAAAADATl2ga/tpPIFAioAjN3dACCiClxIjAJ2CE+bJiOJvLkuZuHOCjs1DPY6CeYyKCOIAAAAAAAAABAAAAAAAAAAAAAAAAAAA==

> <PUBCHEM_IUPAC_OPENEYE_NAME>
5-[[4-[2-[methyl(2-pyridyl)amino]ethoxy]phenyl]methyl]thiazolidine-2,4-dione

> <PUBCHEM_IUPAC_CAS_NAME>
5-[[4-[2-[methyl(2-pyridinyl)amino]ethoxy]phenyl]methyl]thiazolidine-2,4-dione

> <PUBCHEM_IUPAC_NAME>
5-[[4-[2-[methyl(pyridin-2-yl)amino]ethoxy]phenyl]methyl]-1,3-thiazolidine-2,4-dione

> <PUBCHEM_IUPAC_SYSTEMATIC_NAME>
5-[[4-[2-[methyl(pyridin-2-yl)amino]ethoxy]phenyl]methyl]-1,3-thiazolidine-2,4-dione

> <PUBCHEM_IUPAC_TRADITIONAL_NAME>
5-[4-[2-[methyl(2-pyridyl)amino]ethoxy]benzyl]thiazolidine-2,4-quinone

> <PUBCHEM_IUPAC_INCHI>
InChI=1S/C18H19N3O3S/c1-21(16-4-2-3-9-19-16)10-11-24-14-7-5-13(6-8-14)12-15-17(22)20-18(23)25-15/h2-9,15H,10-12H2,1H3,(H,20,22,23)

> <PUBCHEM_IUPAC_INCHIKEY>
YASAKCUCGLMORW-UHFFFAOYSA-N

> <PUBCHEM_XLOGP3_AA>
3.1

> <PUBCHEM_EXACT_MASS>
357.114712

> <PUBCHEM_MOLECULAR_FORMULA>
C18H19N3O3S

> <PUBCHEM_MOLECULAR_WEIGHT>
357.42676

> <PUBCHEM_OPENEYE_CAN_SMILES>
CN(CCOC1=CC=C(C=C1)CC2C(=O)NC(=O)S2)C3=CC=CC=N3

> <PUBCHEM_OPENEYE_ISO_SMILES>
CN(CCOC1=CC=C(C=C1)CC2C(=O)NC(=O)S2)C3=CC=CC=N3

> <PUBCHEM_CACTVS_TPSA>
96.8

> <PUBCHEM_MONOISOTOPIC_WEIGHT>
357.114712

> <PUBCHEM_TOTAL_CHARGE>
0

> <PUBCHEM_HEAVY_ATOM_COUNT>
25

> <PUBCHEM_ATOM_DEF_STEREO_COUNT>
0

> <PUBCHEM_ATOM_UDEF_STEREO_COUNT>
1

> <PUBCHEM_BOND_DEF_STEREO_COUNT>
0

> <PUBCHEM_BOND_UDEF_STEREO_COUNT>
0

> <PUBCHEM_ISOTOPIC_ATOM_COUNT>
0

> <PUBCHEM_COMPONENT_COUNT>
1

> <PUBCHEM_CACTVS_TAUTO_COUNT>
5

> <PUBCHEM_COORDINATE_TYPE>
1
5
255

> <PUBCHEM_BONDANNOTATIONS>
10  13  8
10  14  8
13  17  8
14  18  8
16  17  8
16  18  8
20  22  8
22  23  8
23  25  8
24  25  8
7  20  8
7  24  8
8  9  3

> <DRUG_ID>
w166

> <DRUG_NAME>
Rosiglitazone

$$$$
16538
  CDK     0927151942
null
 48 50  0  0  0  0  0  0  0  0999 V2000
    6.2944   -4.2722    0.0000 Cl  0  0  0  0  0  0  0  0  0  0  0  0
    2.0000    1.2721    0.0000 O   0  0  0  0  0  0  0  0  0  0  0  0
    2.0000    3.2722    0.0000 O   0  0  0  0  0  0  0  0  0  0  0  0
    6.3981    1.7513    0.0000 N   0  0  3  0  0  0  0  0  0  0  0  0
    5.4920    1.2375    0.0000 C   0  0  3  0  0  0  0  0  0  0  0  0
    4.5981    1.7722    0.0000 C   0  0  0  0  0  0  0  0  0  0  0  0
    6.3981    2.7930    0.0000 C   0  0  0  0  0  0  0  0  0  0  0  0
    5.4804    0.2376    0.0000 C   0  0  0  0  0  0  0  0  0  0  0  0
    5.4920    3.3068    0.0000 C   0  0  0  0  0  0  0  0  0  0  0  0
    4.5981    2.7722    0.0000 C   0  0  0  0  0  0  0  0  0  0  0  0
    6.3406   -0.2724    0.0000 C   0  0  0  0  0  0  0  0  0  0  0  0
    3.7320    1.2721    0.0000 C   0  0  0  0  0  0  0  0  0  0  0  0
    7.2622    1.2480    0.0000 C   0  0  0  0  0  0  0  0  0  0  0  0
    3.7320    3.2722    0.0000 C   0  0  0  0  0  0  0  0  0  0  0  0
    2.8660    1.7722    0.0000 C   0  0  0  0  0  0  0  0  0  0  0  0
    2.8660    2.7722    0.0000 C   0  0  0  0  0  0  0  0  0  0  0  0
    6.3291   -1.2724    0.0000 C   0  0  0  0  0  0  0  0  0  0  0  0
    5.4573   -1.7623    0.0000 C   0  0  0  0  0  0  0  0  0  0  0  0
    7.1893   -1.7823    0.0000 C   0  0  0  0  0  0  0  0  0  0  0  0
    5.4458   -2.7622    0.0000 C   0  0  0  0  0  0  0  0  0  0  0  0
    7.1777   -2.7823    0.0000 C   0  0  0  0  0  0  0  0  0  0  0  0
    6.3060   -3.2722    0.0000 C   0  0  0  0  0  0  0  0  0  0  0  0
    2.0000    0.2722    0.0000 C   0  0  0  0  0  0  0  0  0  0  0  0
    2.0000    4.2722    0.0000 C   0  0  0  0  0  0  0  0  0  0  0  0
    6.0259    0.9223    0.0000 H   0  0  0  0  0  0  0  0  0  0  0  0
    7.0089    2.6869    0.0000 H   0  0  0  0  0  0  0  0  0  0  0  0
    6.6071    3.3767    0.0000 H   0  0  0  0  0  0  0  0  0  0  0  0
    4.8712    0.3523    0.0000 H   0  0  0  0  0  0  0  0  0  0  0  0
    5.2617   -0.3426    0.0000 H   0  0  0  0  0  0  0  0  0  0  0  0
    5.8856    3.7858    0.0000 H   0  0  0  0  0  0  0  0  0  0  0  0
    5.0874    3.7766    0.0000 H   0  0  0  0  0  0  0  0  0  0  0  0
    6.9499   -0.3871    0.0000 H   0  0  0  0  0  0  0  0  0  0  0  0
    6.5594    0.3077    0.0000 H   0  0  0  0  0  0  0  0  0  0  0  0
    3.7320    0.6522    0.0000 H   0  0  0  0  0  0  0  0  0  0  0  0
    6.9501    0.7123    0.0000 H   0  0  0  0  0  0  0  0  0  0  0  0
    7.7979    0.9359    0.0000 H   0  0  0  0  0  0  0  0  0  0  0  0
    7.5742    1.7837    0.0000 H   0  0  0  0  0  0  0  0  0  0  0  0
    3.7320    3.8922    0.0000 H   0  0  0  0  0  0  0  0  0  0  0  0
    4.9240   -1.4461    0.0000 H   0  0  0  0  0  0  0  0  0  0  0  0
    7.7298   -1.4786    0.0000 H   0  0  0  0  0  0  0  0  0  0  0  0
    4.9053   -3.0660    0.0000 H   0  0  0  0  0  0  0  0  0  0  0  0
    7.7110   -3.0985    0.0000 H   0  0  0  0  0  0  0  0  0  0  0  0
    1.3800    0.2722    0.0000 H   0  0  0  0  0  0  0  0  0  0  0  0
    2.0000   -0.3478    0.0000 H   0  0  0  0  0  0  0  0  0  0  0  0
    2.6200    0.2722    0.0000 H   0  0  0  0  0  0  0  0  0  0  0  0
    2.6200    4.2722    0.0000 H   0  0  0  0  0  0  0  0  0  0  0  0
    2.0000    4.8922    0.0000 H   0  0  0  0  0  0  0  0  0  0  0  0
    1.3800    4.2722    0.0000 H   0  0  0  0  0  0  0  0  0  0  0  0
  1 22  1  0  0  0  0 
  2 15  1  0  0  0  0 
  2 23  1  0  0  0  0 
  3 16  1  0  0  0  0 
  3 24  1  0  0  0  0 
  4  5  1  0  0  0  0 
  4  7  1  0  0  0  0 
  4 13  1  0  0  0  0 
  5  6  1  0  0  0  0 
  5  8  1  0  0  0  0 
  5 25  1  0  0  0  0 
  6 10  1  0  0  0  0 
  6 12  2  0  0  0  0 
  7  9  1  0  0  0  0 
  7 26  1  0  0  0  0 
  7 27  1  0  0  0  0 
  8 11  1  0  0  0  0 
  8 28  1  0  0  0  0 
  8 29  1  0  0  0  0 
  9 10  1  0  0  0  0 
  9 30  1  0  0  0  0 
  9 31  1  0  0  0  0 
 10 14  2  0  0  0  0 
 11 17  1  0  0  0  0 
 11 32  1  0  0  0  0 
 11 33  1  0  0  0  0 
 12 15  1  0  0  0  0 
 12 34  1  0  0  0  0 
 13 35  1  0  0  0  0 
 13 36  1  0  0  0  0 
 13 37  1  0  0  0  0 
 14 16  1  0  0  0  0 
 14 38  1  0  0  0  0 
 15 16  2  0  0  0  0 
 17 18  2  0  0  0  0 
 17 19  1  0  0  0  0 
 18 20  1  0  0  0  0 
 18 39  1  0  0  0  0 
 19 21  2  0  0  0  0 
 19 40  1  0  0  0  0 
 20 22  2  0  0  0  0 
 20 41  1  0  0  0  0 
 21 22  1  0  0  0  0 
 21 42  1  0  0  0  0 
 23 43  1  0  0  0  0 
 23 44  1  0  0  0  0 
 23 45  1  0  0  0  0 
 24 46  1  0  0  0  0 
 24 47  1  0  0  0  0 
 24 48  1  0  0  0  0 
M  END
> <cdk:Title>
16538

> <cdk:Remark>
null

> <PUBCHEM_COMPOUND_CID>
16538

> <PUBCHEM_COMPOUND_CANONICALIZED>
1

> <PUBCHEM_CACTVS_COMPLEXITY>
386

> <PUBCHEM_CACTVS_HBOND_ACCEPTOR>
3

> <PUBCHEM_CACTVS_HBOND_DONOR>
0

> <PUBCHEM_CACTVS_ROTATABLE_BOND>
5

> <PUBCHEM_CACTVS_SUBSKEYS>
AAADceB6MAAEAAAAAAAAAAAAAAAAAAAAAAA8YIAAAAAAAACxQAAAHgIAAAAADC7BmCYyBoMABACAAiBCAACCCAAgJQAIiAAOjogNJiKFsxuEMCpkwBGKqAew0PMOpAABAAAQQABIAAIAACCAAAAAAAAAAA==

> <PUBCHEM_IUPAC_OPENEYE_NAME>
1-[2-(4-chlorophenyl)ethyl]-6,7-dimethoxy-2-methyl-3,4-dihydro-1H-isoquinoline

> <PUBCHEM_IUPAC_CAS_NAME>
1-[2-(4-chlorophenyl)ethyl]-6,7-dimethoxy-2-methyl-3,4-dihydro-1H-isoquinoline

> <PUBCHEM_IUPAC_NAME>
1-[2-(4-chlorophenyl)ethyl]-6,7-dimethoxy-2-methyl-3,4-dihydro-1H-isoquinoline

> <PUBCHEM_IUPAC_SYSTEMATIC_NAME>
1-[2-(4-chlorophenyl)ethyl]-6,7-dimethoxy-2-methyl-3,4-dihydro-1H-isoquinoline

> <PUBCHEM_IUPAC_TRADITIONAL_NAME>
1-[2-(4-chlorophenyl)ethyl]-6,7-dimethoxy-2-methyl-3,4-dihydro-1H-isoquinoline

> <PUBCHEM_IUPAC_INCHI>
InChI=1S/C20H24ClNO2/c1-22-11-10-15-12-19(23-2)20(24-3)13-17(15)18(22)9-6-14-4-7-16(21)8-5-14/h4-5,7-8,12-13,18H,6,9-11H2,1-3H3

> <PUBCHEM_IUPAC_INCHIKEY>
YBCPYHQFUMNOJG-UHFFFAOYSA-N

> <PUBCHEM_XLOGP3_AA>
4.7

> <PUBCHEM_EXACT_MASS>
345.149557

> <PUBCHEM_MOLECULAR_FORMULA>
C20H24ClNO2

> <PUBCHEM_MOLECULAR_WEIGHT>
345.86306

> <PUBCHEM_OPENEYE_CAN_SMILES>
CN1CCC2=CC(=C(C=C2C1CCC3=CC=C(C=C3)Cl)OC)OC

> <PUBCHEM_OPENEYE_ISO_SMILES>
CN1CCC2=CC(=C(C=C2C1CCC3=CC=C(C=C3)Cl)OC)OC

> <PUBCHEM_CACTVS_TPSA>
21.7

> <PUBCHEM_MONOISOTOPIC_WEIGHT>
345.149557

> <PUBCHEM_TOTAL_CHARGE>
0

> <PUBCHEM_HEAVY_ATOM_COUNT>
24

> <PUBCHEM_ATOM_DEF_STEREO_COUNT>
0

> <PUBCHEM_ATOM_UDEF_STEREO_COUNT>
1

> <PUBCHEM_BOND_DEF_STEREO_COUNT>
0

> <PUBCHEM_BOND_UDEF_STEREO_COUNT>
0

> <PUBCHEM_ISOTOPIC_ATOM_COUNT>
0

> <PUBCHEM_COMPONENT_COUNT>
1

> <PUBCHEM_CACTVS_TAUTO_COUNT>
1

> <PUBCHEM_COORDINATE_TYPE>
1
5
255

> <PUBCHEM_BONDANNOTATIONS>
10  14  8
12  15  8
14  16  8
15  16  8
17  18  8
17  19  8
18  20  8
19  21  8
20  22  8
21  22  8
5  8  3
6  10  8
6  12  8

> <DRUG_ID>
w167

> <DRUG_NAME>
Methopholine

$$$$
9064
  CDK     0927151942
null
 35 37  0  0  0  0  0  0  0  0999 V2000
    6.8671    0.2704    0.0000 O   0  0  0  0  0  0  0  0  0  0  0  0
    5.1350   -1.7296    0.0000 O   0  0  0  0  0  0  0  0  0  0  0  0
    8.6155   -2.7642    0.0000 O   0  0  0  0  0  0  0  0  0  0  0  0
   10.3972    0.2945    0.0000 O   0  0  0  0  0  0  0  0  0  0  0  0
    4.2690    2.7704    0.0000 O   0  0  0  0  0  0  0  0  0  0  0  0
    2.5369    1.7704    0.0000 O   0  0  0  0  0  0  0  0  0  0  0  0
    6.0010   -1.2296    0.0000 C   0  0  2  0  0  0  0  0  0  0  0  0
    6.0010   -0.2296    0.0000 C   0  0  1  0  0  0  0  0  0  0  0  0
    6.8671   -1.7296    0.0000 C   0  0  0  0  0  0  0  0  0  0  0  0
    7.7331   -1.2296    0.0000 C   0  0  0  0  0  0  0  0  0  0  0  0
    7.7331   -0.2296    0.0000 C   0  0  0  0  0  0  0  0  0  0  0  0
    5.1350    0.2704    0.0000 C   0  0  0  0  0  0  0  0  0  0  0  0
    8.6270   -1.7643    0.0000 C   0  0  0  0  0  0  0  0  0  0  0  0
    8.6270    0.3051    0.0000 C   0  0  0  0  0  0  0  0  0  0  0  0
    5.1350    1.2704    0.0000 C   0  0  0  0  0  0  0  0  0  0  0  0
    4.2690   -0.2296    0.0000 C   0  0  0  0  0  0  0  0  0  0  0  0
    9.5331   -1.2504    0.0000 C   0  0  0  0  0  0  0  0  0  0  0  0
    9.5331   -0.2088    0.0000 C   0  0  0  0  0  0  0  0  0  0  0  0
    4.2690    1.7704    0.0000 C   0  0  0  0  0  0  0  0  0  0  0  0
    3.4030    0.2704    0.0000 C   0  0  0  0  0  0  0  0  0  0  0  0
    3.4030    1.2704    0.0000 C   0  0  0  0  0  0  0  0  0  0  0  0
    5.4641   -0.9196    0.0000 H   0  0  0  0  0  0  0  0  0  0  0  0
    5.4641   -0.5396    0.0000 H   0  0  0  0  0  0  0  0  0  0  0  0
    6.4685   -2.2046    0.0000 H   0  0  0  0  0  0  0  0  0  0  0  0
    7.2656   -2.2046    0.0000 H   0  0  0  0  0  0  0  0  0  0  0  0
    8.6199    0.9250    0.0000 H   0  0  0  0  0  0  0  0  0  0  0  0
    5.6720    1.5804    0.0000 H   0  0  0  0  0  0  0  0  0  0  0  0
    5.1350   -2.3496    0.0000 H   0  0  0  0  0  0  0  0  0  0  0  0
    4.2690   -0.8496    0.0000 H   0  0  0  0  0  0  0  0  0  0  0  0
   10.0688   -1.5625    0.0000 H   0  0  0  0  0  0  0  0  0  0  0  0
    2.8660   -0.0396    0.0000 H   0  0  0  0  0  0  0  0  0  0  0  0
    9.1488   -3.0804    0.0000 H   0  0  0  0  0  0  0  0  0  0  0  0
   10.9353   -0.0134    0.0000 H   0  0  0  0  0  0  0  0  0  0  0  0
    4.8059    3.0804    0.0000 H   0  0  0  0  0  0  0  0  0  0  0  0
    2.0000    1.4604    0.0000 H   0  0  0  0  0  0  0  0  0  0  0  0
  1  8  1  0  0  0  0 
  1 11  1  0  0  0  0 
  7  2  1  6  0  0  0 
  2 28  1  0  0  0  0 
  3 13  1  0  0  0  0 
  3 32  1  0  0  0  0 
  4 18  1  0  0  0  0 
  4 33  1  0  0  0  0 
  5 19  1  0  0  0  0 
  5 34  1  0  0  0  0 
  6 21  1  0  0  0  0 
  6 35  1  0  0  0  0 
  7  8  1  0  0  0  0 
  7  9  1  0  0  0  0 
  7 22  1  0  0  0  0 
  8 12  1  1  0  0  0 
  8 23  1  0  0  0  0 
  9 10  1  0  0  0  0 
  9 24  1  0  0  0  0 
  9 25  1  0  0  0  0 
 10 11  1  0  0  0  0 
 10 13  2  0  0  0  0 
 11 14  2  0  0  0  0 
 12 15  2  0  0  0  0 
 12 16  1  0  0  0  0 
 13 17  1  0  0  0  0 
 14 18  1  0  0  0  0 
 14 26  1  0  0  0  0 
 15 19  1  0  0  0  0 
 15 27  1  0  0  0  0 
 16 20  2  0  0  0  0 
 16 29  1  0  0  0  0 
 17 18  2  0  0  0  0 
 17 30  1  0  0  0  0 
 19 21  2  0  0  0  0 
 20 21  1  0  0  0  0 
 20 31  1  0  0  0  0 
M  END
> <cdk:Title>
9064

> <cdk:Remark>
null

> <PUBCHEM_COMPOUND_CID>
9064

> <PUBCHEM_COMPOUND_CANONICALIZED>
1

> <PUBCHEM_CACTVS_COMPLEXITY>
364

> <PUBCHEM_CACTVS_HBOND_ACCEPTOR>
6

> <PUBCHEM_CACTVS_HBOND_DONOR>
5

> <PUBCHEM_CACTVS_ROTATABLE_BOND>
1

> <PUBCHEM_CACTVS_SUBSKEYS>
AAADccBwOAAAAAAAAAAAAAAAAAAAAAAAAAA0YIAAAAAAAACRQAAAGgAACAAADBSgmAIwBoAABgCAAiBCAAACCAAgIAAIiAAGiIgNNyKGMRqCeCGlwBULuAfA4PwOIAABCAAIQABAAAIQABCAAAAAAAAAAA==

> <PUBCHEM_IUPAC_OPENEYE_NAME>
(2R,3S)-2-(3,4-dihydroxyphenyl)chromane-3,5,7-triol

> <PUBCHEM_IUPAC_CAS_NAME>
(2R,3S)-2-(3,4-dihydroxyphenyl)-3,4-dihydro-2H-1-benzopyran-3,5,7-triol

> <PUBCHEM_IUPAC_NAME>
(2R,3S)-2-(3,4-dihydroxyphenyl)-3,4-dihydro-2H-chromene-3,5,7-triol

> <PUBCHEM_IUPAC_SYSTEMATIC_NAME>
(2R,3S)-2-[3,4-bis(oxidanyl)phenyl]-3,4-dihydro-2H-chromene-3,5,7-triol

> <PUBCHEM_IUPAC_TRADITIONAL_NAME>
(2R,3S)-2-(3,4-dihydroxyphenyl)chroman-3,5,7-triol

> <PUBCHEM_IUPAC_INCHI>
InChI=1S/C15H14O6/c16-8-4-11(18)9-6-13(20)15(21-14(9)5-8)7-1-2-10(17)12(19)3-7/h1-5,13,15-20H,6H2/t13-,15+/m0/s1

> <PUBCHEM_IUPAC_INCHIKEY>
PFTAWBLQPZVEMU-DZGCQCFKSA-N

> <PUBCHEM_XLOGP3>
0.4

> <PUBCHEM_EXACT_MASS>
290.079038

> <PUBCHEM_MOLECULAR_FORMULA>
C15H14O6

> <PUBCHEM_MOLECULAR_WEIGHT>
290.26806

> <PUBCHEM_OPENEYE_CAN_SMILES>
C1C(C(OC2=CC(=CC(=C21)O)O)C3=CC(=C(C=C3)O)O)O

> <PUBCHEM_OPENEYE_ISO_SMILES>
C1[C@@H]([C@H](OC2=CC(=CC(=C21)O)O)C3=CC(=C(C=C3)O)O)O

> <PUBCHEM_CACTVS_TPSA>
110

> <PUBCHEM_MONOISOTOPIC_WEIGHT>
290.079038

> <PUBCHEM_TOTAL_CHARGE>
0

> <PUBCHEM_HEAVY_ATOM_COUNT>
21

> <PUBCHEM_ATOM_DEF_STEREO_COUNT>
2

> <PUBCHEM_ATOM_UDEF_STEREO_COUNT>
0

> <PUBCHEM_BOND_DEF_STEREO_COUNT>
0

> <PUBCHEM_BOND_UDEF_STEREO_COUNT>
0

> <PUBCHEM_ISOTOPIC_ATOM_COUNT>
0

> <PUBCHEM_COMPONENT_COUNT>
1

> <PUBCHEM_CACTVS_TAUTO_COUNT>
90

> <PUBCHEM_COORDINATE_TYPE>
1
5
255

> <PUBCHEM_BONDANNOTATIONS>
10  11  8
10  13  8
11  14  8
12  15  8
12  16  8
13  17  8
14  18  8
15  19  8
16  20  8
17  18  8
19  21  8
7  2  6
20  21  8
8  12  5

> <DRUG_ID>
w168

> <DRUG_NAME>
Cianidanol

$$$$
47811
  CDK     0927151942
null
 48 51  0  0  0  0  0  0  0  0999 V2000
    2.8680    2.8736    0.0000 S   0  0  0  0  0  0  0  0  0  0  0  0
    5.5399    1.3700    0.0000 N   0  0  3  0  0  0  0  0  0  0  0  0
    6.5279   -2.8202    0.0000 N   0  0  0  0  0  0  0  0  0  0  0  0
    4.6578   -0.1715    0.0000 C   0  0  2  0  0  0  0  0  0  0  0  0
    5.5238    0.3285    0.0000 C   0  0  1  0  0  0  0  0  0  0  0  0
    3.7478    0.3353    0.0000 C   0  0  0  0  0  0  0  0  0  0  0  0
    3.7398    1.3769    0.0000 C   0  0  2  0  0  0  0  0  0  0  0  0
    4.6418    1.8978    0.0000 C   0  0  0  0  0  0  0  0  0  0  0  0
    6.3898   -0.1715    0.0000 C   0  0  0  0  0  0  0  0  0  0  0  0
    4.6578   -1.1715    0.0000 C   0  0  0  0  0  0  0  0  0  0  0  0
    6.3898   -1.1715    0.0000 C   0  0  0  0  0  0  0  0  0  0  0  0
    5.5238   -1.6715    0.0000 C   0  0  0  0  0  0  0  0  0  0  0  0
    6.4116    1.8600    0.0000 C   0  0  0  0  0  0  0  0  0  0  0  0
    2.8718    1.8736    0.0000 C   0  0  0  0  0  0  0  0  0  0  0  0
    5.5399   -2.7130    0.0000 C   0  0  0  0  0  0  0  0  0  0  0  0
    3.7478   -1.6784    0.0000 C   0  0  0  0  0  0  0  0  0  0  0  0
    7.0078   -1.9499    0.0000 C   0  0  0  0  0  0  0  0  0  0  0  0
    6.4232    2.8599    0.0000 C   0  0  0  0  0  0  0  0  0  0  0  0
    4.6418   -3.2408    0.0000 C   0  0  0  0  0  0  0  0  0  0  0  0
    3.7398   -2.7200    0.0000 C   0  0  0  0  0  0  0  0  0  0  0  0
    7.2949    3.3498    0.0000 C   0  0  0  0  0  0  0  0  0  0  0  0
    2.0000    3.3702    0.0000 C   0  0  0  0  0  0  0  0  0  0  0  0
    3.9250   -0.6022    0.0000 H   0  0  0  0  0  0  0  0  0  0  0  0
    6.2632    0.7478    0.0000 H   0  0  0  0  0  0  0  0  0  0  0  0
    3.1361    0.4367    0.0000 H   0  0  0  0  0  0  0  0  0  0  0  0
    3.5432   -0.2499    0.0000 H   0  0  0  0  0  0  0  0  0  0  0  0
    3.7386    1.9969    0.0000 H   0  0  0  0  0  0  0  0  0  0  0  0
    5.0428    2.3706    0.0000 H   0  0  0  0  0  0  0  0  0  0  0  0
    4.2445    2.3737    0.0000 H   0  0  0  0  0  0  0  0  0  0  0  0
    7.0004   -0.2792    0.0000 H   0  0  0  0  0  0  0  0  0  0  0  0
    6.6019    0.4111    0.0000 H   0  0  0  0  0  0  0  0  0  0  0  0
    6.6169    1.2749    0.0000 H   0  0  0  0  0  0  0  0  0  0  0  0
    7.0234    1.9606    0.0000 H   0  0  0  0  0  0  0  0  0  0  0  0
    2.2608    1.9789    0.0000 H   0  0  0  0  0  0  0  0  0  0  0  0
    2.6620    1.2902    0.0000 H   0  0  0  0  0  0  0  0  0  0  0  0
    3.2145   -1.3622    0.0000 H   0  0  0  0  0  0  0  0  0  0  0  0
    7.6256   -1.8981    0.0000 H   0  0  0  0  0  0  0  0  0  0  0  0
    6.2179    3.4449    0.0000 H   0  0  0  0  0  0  0  0  0  0  0  0
    5.8114    2.7593    0.0000 H   0  0  0  0  0  0  0  0  0  0  0  0
    6.8139   -3.3702    0.0000 H   0  0  0  0  0  0  0  0  0  0  0  0
    4.6442   -3.8608    0.0000 H   0  0  0  0  0  0  0  0  0  0  0  0
    3.2016   -3.0279    0.0000 H   0  0  0  0  0  0  0  0  0  0  0  0
    7.5987    2.8094    0.0000 H   0  0  0  0  0  0  0  0  0  0  0  0
    7.8354    3.6536    0.0000 H   0  0  0  0  0  0  0  0  0  0  0  0
    6.9912    3.8903    0.0000 H   0  0  0  0  0  0  0  0  0  0  0  0
    2.3079    3.9084    0.0000 H   0  0  0  0  0  0  0  0  0  0  0  0
    1.4619    3.6782    0.0000 H   0  0  0  0  0  0  0  0  0  0  0  0
    1.6921    2.8321    0.0000 H   0  0  0  0  0  0  0  0  0  0  0  0
  1 14  1  0  0  0  0 
  1 22  1  0  0  0  0 
  2  5  1  0  0  0  0 
  2  8  1  0  0  0  0 
  2 13  1  0  0  0  0 
  3 15  1  0  0  0  0 
  3 17  1  0  0  0  0 
  3 40  1  0  0  0  0 
  4  5  1  0  0  0  0 
  4  6  1  0  0  0  0 
  4 10  1  0  0  0  0 
  4 23  1  6  0  0  0 
  5  9  1  0  0  0  0 
  5 24  1  1  0  0  0 
  6  7  1  0  0  0  0 
  6 25  1  0  0  0  0 
  6 26  1  0  0  0  0 
  7  8  1  0  0  0  0 
  7 14  1  1  0  0  0 
  7 27  1  0  0  0  0 
  8 28  1  0  0  0  0 
  8 29  1  0  0  0  0 
  9 11  1  0  0  0  0 
  9 30  1  0  0  0  0 
  9 31  1  0  0  0  0 
 10 12  2  0  0  0  0 
 10 16  1  0  0  0  0 
 11 12  1  0  0  0  0 
 11 17  2  0  0  0  0 
 12 15  1  0  0  0  0 
 13 18  1  0  0  0  0 
 13 32  1  0  0  0  0 
 13 33  1  0  0  0  0 
 14 34  1  0  0  0  0 
 14 35  1  0  0  0  0 
 15 19  2  0  0  0  0 
 16 20  2  0  0  0  0 
 16 36  1  0  0  0  0 
 17 37  1  0  0  0  0 
 18 21  1  0  0  0  0 
 18 38  1  0  0  0  0 
 18 39  1  0  0  0  0 
 19 20  1  0  0  0  0 
 19 41  1  0  0  0  0 
 20 42  1  0  0  0  0 
 21 43  1  0  0  0  0 
 21 44  1  0  0  0  0 
 21 45  1  0  0  0  0 
 22 46  1  0  0  0  0 
 22 47  1  0  0  0  0 
 22 48  1  0  0  0  0 
M  END
> <cdk:Title>
47811

> <cdk:Remark>
null

> <PUBCHEM_COMPOUND_CID>
47811

> <PUBCHEM_COMPOUND_CANONICALIZED>
1

> <PUBCHEM_CACTVS_COMPLEXITY>
388

> <PUBCHEM_CACTVS_HBOND_ACCEPTOR>
2

> <PUBCHEM_CACTVS_HBOND_DONOR>
1

> <PUBCHEM_CACTVS_ROTATABLE_BOND>
4

> <PUBCHEM_CACTVS_SUBSKEYS>
AAADceB7AABAAAAAAAAAAAAAAAAAAWAAAAA8YIAAAAAAAFjx8AAAHAQQAAAADSjFXgS+wPPJkAigAzRnRACCgCAxAjAI2aA4ZJgIIOLgkZGEIAhgkADIyAcQgMAOgAAAQAASAACQAASAACQAAAAAAAAAAA==

> <PUBCHEM_IUPAC_OPENEYE_NAME>
(6aR,9R,10aR)-9-(methylsulfanylmethyl)-7-propyl-6,6a,8,9,10,10a-hexahydro-4H-indolo[4,3-fg]quinoline

> <PUBCHEM_IUPAC_CAS_NAME>
(6aR,9R,10aR)-9-[(methylthio)methyl]-7-propyl-6,6a,8,9,10,10a-hexahydro-4H-indolo[4,3-fg]quinoline

> <PUBCHEM_IUPAC_NAME>
(6aR,9R,10aR)-9-(methylsulfanylmethyl)-7-propyl-6,6a,8,9,10,10a-hexahydro-4H-indolo[4,3-fg]quinoline

> <PUBCHEM_IUPAC_SYSTEMATIC_NAME>
(6aR,9R,10aR)-9-(methylsulfanylmethyl)-7-propyl-6,6a,8,9,10,10a-hexahydro-4H-indolo[4,3-fg]quinoline

> <PUBCHEM_IUPAC_TRADITIONAL_NAME>
(6aR,9R,10aR)-9-[(methylthio)methyl]-7-propyl-6,6a,8,9,10,10a-hexahydro-4H-indolo[4,3-fg]quinoline

> <PUBCHEM_IUPAC_INCHI>
InChI=1S/C19H26N2S/c1-3-7-21-11-13(12-22-2)8-16-15-5-4-6-17-19(15)14(10-20-17)9-18(16)21/h4-6,10,13,16,18,20H,3,7-9,11-12H2,1-2H3/t13-,16-,18-/m1/s1

> <PUBCHEM_IUPAC_INCHIKEY>
YEHCICAEULNIGD-MZMPZRCHSA-N

> <PUBCHEM_XLOGP3_AA>
4.2

> <PUBCHEM_EXACT_MASS>
314.18167

> <PUBCHEM_MOLECULAR_FORMULA>
C19H26N2S

> <PUBCHEM_MOLECULAR_WEIGHT>
314.48814

> <PUBCHEM_OPENEYE_CAN_SMILES>
CCCN1CC(CC2C1CC3=CNC4=CC=CC2=C34)CSC

> <PUBCHEM_OPENEYE_ISO_SMILES>
CCCN1C[C@@H](C[C@H]2[C@H]1CC3=CNC4=CC=CC2=C34)CSC

> <PUBCHEM_CACTVS_TPSA>
44.3

> <PUBCHEM_MONOISOTOPIC_WEIGHT>
314.18167

> <PUBCHEM_TOTAL_CHARGE>
0

> <PUBCHEM_HEAVY_ATOM_COUNT>
22

> <PUBCHEM_ATOM_DEF_STEREO_COUNT>
3

> <PUBCHEM_ATOM_UDEF_STEREO_COUNT>
0

> <PUBCHEM_BOND_DEF_STEREO_COUNT>
0

> <PUBCHEM_BOND_UDEF_STEREO_COUNT>
0

> <PUBCHEM_ISOTOPIC_ATOM_COUNT>
0

> <PUBCHEM_COMPONENT_COUNT>
1

> <PUBCHEM_CACTVS_TAUTO_COUNT>
64

> <PUBCHEM_COORDINATE_TYPE>
1
5
255

> <PUBCHEM_BONDANNOTATIONS>
10  12  8
10  16  8
11  12  8
11  17  8
12  15  8
15  19  8
16  20  8
19  20  8
3  15  8
3  17  8
4  23  6
5  24  5
7  14  5

> <DRUG_ID>
w169

> <DRUG_NAME>
Pergolide

$$$$
2313
  CDK     0927151942
null
 35 37  0  0  0  0  0  0  0  0999 V2000
    4.9889   -1.4606    0.0000 O   0  0  0  0  0  0  0  0  0  0  0  0
    7.2566   -2.8236    0.0000 O   0  0  0  0  0  0  0  0  0  0  0  0
    5.6103   -3.3616    0.0000 O   0  0  0  0  0  0  0  0  0  0  0  0
    4.6783    1.0994    0.0000 N   0  0  0  0  0  0  0  0  0  0  0  0
    5.2619    0.2947    0.0000 N   0  0  0  0  0  0  0  0  0  0  0  0
    3.7320    0.7947    0.0000 C   0  0  0  0  0  0  0  0  0  0  0  0
    4.9889    2.0499    0.0000 C   0  0  0  0  0  0  0  0  0  0  0  0
    3.7320   -0.2053    0.0000 C   0  0  0  0  0  0  0  0  0  0  0  0
    4.6783   -0.5101    0.0000 C   0  0  0  0  0  0  0  0  0  0  0  0
    5.9674    2.2561    0.0000 C   0  0  0  0  0  0  0  0  0  0  0  0
    2.8660    1.2947    0.0000 C   0  0  0  0  0  0  0  0  0  0  0  0
    2.8660   -0.7053    0.0000 C   0  0  0  0  0  0  0  0  0  0  0  0
    2.0000    0.7947    0.0000 C   0  0  0  0  0  0  0  0  0  0  0  0
    2.0000   -0.2053    0.0000 C   0  0  0  0  0  0  0  0  0  0  0  0
    6.2781    3.2066    0.0000 C   0  0  0  0  0  0  0  0  0  0  0  0
    6.6353    1.5118    0.0000 C   0  0  0  0  0  0  0  0  0  0  0  0
    7.2566    3.4129    0.0000 C   0  0  0  0  0  0  0  0  0  0  0  0
    7.6138    1.7180    0.0000 C   0  0  0  0  0  0  0  0  0  0  0  0
    5.9674   -1.6668    0.0000 C   0  0  0  0  0  0  0  0  0  0  0  0
    7.9244    2.6686    0.0000 C   0  0  0  0  0  0  0  0  0  0  0  0
    6.2781   -2.6173    0.0000 C   0  0  0  0  0  0  0  0  0  0  0  0
    4.9684    2.6696    0.0000 H   0  0  0  0  0  0  0  0  0  0  0  0
    4.3751    2.1373    0.0000 H   0  0  0  0  0  0  0  0  0  0  0  0
    2.8660    1.9147    0.0000 H   0  0  0  0  0  0  0  0  0  0  0  0
    2.8660   -1.3253    0.0000 H   0  0  0  0  0  0  0  0  0  0  0  0
    1.4631    1.1047    0.0000 H   0  0  0  0  0  0  0  0  0  0  0  0
    1.4631   -0.5153    0.0000 H   0  0  0  0  0  0  0  0  0  0  0  0
    5.8640    3.6681    0.0000 H   0  0  0  0  0  0  0  0  0  0  0  0
    6.4427    0.9225    0.0000 H   0  0  0  0  0  0  0  0  0  0  0  0
    7.4492    4.0022    0.0000 H   0  0  0  0  0  0  0  0  0  0  0  0
    8.0279    1.2566    0.0000 H   0  0  0  0  0  0  0  0  0  0  0  0
    6.5812   -1.5795    0.0000 H   0  0  0  0  0  0  0  0  0  0  0  0
    5.9880   -1.0472    0.0000 H   0  0  0  0  0  0  0  0  0  0  0  0
    8.5311    2.7964    0.0000 H   0  0  0  0  0  0  0  0  0  0  0  0
    7.4492   -3.4129    0.0000 H   0  0  0  0  0  0  0  0  0  0  0  0
  1  9  1  0  0  0  0 
  1 19  1  0  0  0  0 
  2 21  1  0  0  0  0 
  2 35  1  0  0  0  0 
  3 21  2  0  0  0  0 
  4  5  1  0  0  0  0 
  4  6  1  0  0  0  0 
  4  7  1  0  0  0  0 
  5  9  2  0  0  0  0 
  6  8  1  0  0  0  0 
  6 11  2  0  0  0  0 
  7 10  1  0  0  0  0 
  7 22  1  0  0  0  0 
  7 23  1  0  0  0  0 
  8  9  1  0  0  0  0 
  8 12  2  0  0  0  0 
 10 15  2  0  0  0  0 
 10 16  1  0  0  0  0 
 11 13  1  0  0  0  0 
 11 24  1  0  0  0  0 
 12 14  1  0  0  0  0 
 12 25  1  0  0  0  0 
 13 14  2  0  0  0  0 
 13 26  1  0  0  0  0 
 14 27  1  0  0  0  0 
 15 17  1  0  0  0  0 
 15 28  1  0  0  0  0 
 16 18  2  0  0  0  0 
 16 29  1  0  0  0  0 
 17 20  2  0  0  0  0 
 17 30  1  0  0  0  0 
 18 20  1  0  0  0  0 
 18 31  1  0  0  0  0 
 19 21  1  0  0  0  0 
 19 32  1  0  0  0  0 
 19 33  1  0  0  0  0 
 20 34  1  0  0  0  0 
M  END
> <cdk:Title>
2313

> <cdk:Remark>
null

> <PUBCHEM_COMPOUND_CID>
2313

> <PUBCHEM_COMPOUND_CANONICALIZED>
1

> <PUBCHEM_CACTVS_COMPLEXITY>
357

> <PUBCHEM_CACTVS_HBOND_ACCEPTOR>
4

> <PUBCHEM_CACTVS_HBOND_DONOR>
1

> <PUBCHEM_CACTVS_ROTATABLE_BOND>
5

> <PUBCHEM_CACTVS_SUBSKEYS>
AAADccB7MAAAAAAAAAAAAAAAAAAAAWAAAAAwYAAAAAAAAFgB9AAAHgAICAAADAjhngYwzPIIBgCqAyTyTAKSDAAhogAY2CB8bJgNJqLE8d+OvCjmyBnL6AeQwCAOAAAAAAACAAAAAAAAAAQAAAAAAAAAAA==

> <PUBCHEM_IUPAC_OPENEYE_NAME>
2-(1-benzylindazol-3-yl)oxyacetic acid

> <PUBCHEM_IUPAC_CAS_NAME>
2-[[1-(phenylmethyl)-3-indazolyl]oxy]acetic acid

> <PUBCHEM_IUPAC_NAME>
2-(1-benzylindazol-3-yl)oxyacetic acid

> <PUBCHEM_IUPAC_SYSTEMATIC_NAME>
2-[1-(phenylmethyl)indazol-3-yl]oxyethanoic acid

> <PUBCHEM_IUPAC_TRADITIONAL_NAME>
2-(1-benzylindazol-3-yl)oxyacetic acid

> <PUBCHEM_IUPAC_INCHI>
InChI=1S/C16H14N2O3/c19-15(20)11-21-16-13-8-4-5-9-14(13)18(17-16)10-12-6-2-1-3-7-12/h1-9H,10-11H2,(H,19,20)

> <PUBCHEM_IUPAC_INCHIKEY>
BYFMCKSPFYVMOU-UHFFFAOYSA-N

> <PUBCHEM_XLOGP3_AA>
3.1

> <PUBCHEM_EXACT_MASS>
282.100442

> <PUBCHEM_MOLECULAR_FORMULA>
C16H14N2O3

> <PUBCHEM_MOLECULAR_WEIGHT>
282.29396

> <PUBCHEM_OPENEYE_CAN_SMILES>
C1=CC=C(C=C1)CN2C3=CC=CC=C3C(=N2)OCC(=O)O

> <PUBCHEM_OPENEYE_ISO_SMILES>
C1=CC=C(C=C1)CN2C3=CC=CC=C3C(=N2)OCC(=O)O

> <PUBCHEM_CACTVS_TPSA>
64.4

> <PUBCHEM_MONOISOTOPIC_WEIGHT>
282.100442

> <PUBCHEM_TOTAL_CHARGE>
0

> <PUBCHEM_HEAVY_ATOM_COUNT>
21

> <PUBCHEM_ATOM_DEF_STEREO_COUNT>
0

> <PUBCHEM_ATOM_UDEF_STEREO_COUNT>
0

> <PUBCHEM_BOND_DEF_STEREO_COUNT>
0

> <PUBCHEM_BOND_UDEF_STEREO_COUNT>
0

> <PUBCHEM_ISOTOPIC_ATOM_COUNT>
0

> <PUBCHEM_COMPONENT_COUNT>
1

> <PUBCHEM_CACTVS_TAUTO_COUNT>
1

> <PUBCHEM_COORDINATE_TYPE>
1
5
255

> <PUBCHEM_BONDANNOTATIONS>
10  15  8
10  16  8
11  13  8
12  14  8
13  14  8
15  17  8
16  18  8
17  20  8
18  20  8
4  5  8
4  6  8
5  9  8
6  11  8
6  8  8
8  12  8
8  9  8

> <DRUG_ID>
w17

> <DRUG_NAME>
Bendazac

$$$$
5857
  CDK     0927151942
null
 49 52  0  0  0  0  0  0  0  0999 V2000
    7.1640    1.8849    0.0000 O   0  0  0  0  0  0  0  0  0  0  0  0
    6.5251   -0.3714    0.0000 C   0  0  2  0  0  0  0  0  0  0  0  0
    6.5251    0.6286    0.0000 C   0  0  2  0  0  0  0  0  0  0  0  0
    5.6591   -0.8714    0.0000 C   0  0  1  0  0  0  0  0  0  0  0  0
    4.7931   -0.3714    0.0000 C   0  0  2  0  0  0  0  0  0  0  0  0
    5.6591    1.1286    0.0000 C   0  0  0  0  0  0  0  0  0  0  0  0
    7.4714    0.9333    0.0000 C   0  0  2  0  0  0  0  0  0  0  0  0
    7.4714   -0.6762    0.0000 C   0  0  0  0  0  0  0  0  0  0  0  0
    4.7931    0.6286    0.0000 C   0  0  0  0  0  0  0  0  0  0  0  0
    3.8831   -0.8783    0.0000 C   0  0  2  0  0  0  0  0  0  0  0  0
    8.0550    0.1286    0.0000 C   0  0  0  0  0  0  0  0  0  0  0  0
    5.6752   -1.9130    0.0000 C   0  0  0  0  0  0  0  0  0  0  0  0
    6.5251    1.6286    0.0000 C   0  0  0  0  0  0  0  0  0  0  0  0
    3.8751   -1.9199    0.0000 C   0  0  0  0  0  0  0  0  0  0  0  0
    4.7771   -2.4407    0.0000 C   0  0  0  0  0  0  0  0  0  0  0  0
    2.9562   -0.3142    0.0000 C   0  0  0  0  0  0  0  0  0  0  0  0
    2.0084   -0.8422    0.0000 C   0  0  0  0  0  0  0  0  0  0  0  0
    8.2814    1.5197    0.0000 C   0  0  0  0  0  0  0  0  0  0  0  0
    2.9396   -2.4696    0.0000 C   0  0  0  0  0  0  0  0  0  0  0  0
    2.0000   -1.9271    0.0000 C   0  0  0  0  0  0  0  0  0  0  0  0
    9.0914    2.1061    0.0000 C   0  0  0  0  0  0  0  0  0  0  0  0
    6.6151   -1.2167    0.0000 H   0  0  0  0  0  0  0  0  0  0  0  0
    6.3985   -1.2908    0.0000 H   0  0  0  0  0  0  0  0  0  0  0  0
    5.5292    0.0536    0.0000 H   0  0  0  0  0  0  0  0  0  0  0  0
    6.0576    1.6035    0.0000 H   0  0  0  0  0  0  0  0  0  0  0  0
    5.2606    1.6035    0.0000 H   0  0  0  0  0  0  0  0  0  0  0  0
    7.2203   -1.2431    0.0000 H   0  0  0  0  0  0  0  0  0  0  0  0
    8.0087   -0.9854    0.0000 H   0  0  0  0  0  0  0  0  0  0  0  0
    4.5810    1.2112    0.0000 H   0  0  0  0  0  0  0  0  0  0  0  0
    4.1825    0.5209    0.0000 H   0  0  0  0  0  0  0  0  0  0  0  0
    3.8995   -0.0284    0.0000 H   0  0  0  0  0  0  0  0  0  0  0  0
    8.5158   -0.2862    0.0000 H   0  0  0  0  0  0  0  0  0  0  0  0
    8.5158    0.5433    0.0000 H   0  0  0  0  0  0  0  0  0  0  0  0
    5.8932   -2.4934    0.0000 H   0  0  0  0  0  0  0  0  0  0  0  0
    6.2843   -1.7974    0.0000 H   0  0  0  0  0  0  0  0  0  0  0  0
    7.1451    1.6286    0.0000 H   0  0  0  0  0  0  0  0  0  0  0  0
    6.5251    2.2486    0.0000 H   0  0  0  0  0  0  0  0  0  0  0  0
    5.9051    1.6286    0.0000 H   0  0  0  0  0  0  0  0  0  0  0  0
    4.3798   -2.9167    0.0000 H   0  0  0  0  0  0  0  0  0  0  0  0
    5.1781   -2.9136    0.0000 H   0  0  0  0  0  0  0  0  0  0  0  0
    3.3645    0.1524    0.0000 H   0  0  0  0  0  0  0  0  0  0  0  0
    2.5663    0.1678    0.0000 H   0  0  0  0  0  0  0  0  0  0  0  0
    1.8038   -0.2569    0.0000 H   0  0  0  0  0  0  0  0  0  0  0  0
    1.3967   -0.9435    0.0000 H   0  0  0  0  0  0  0  0  0  0  0  0
    7.5796    2.3449    0.0000 H   0  0  0  0  0  0  0  0  0  0  0  0
    2.9420   -3.0896    0.0000 H   0  0  0  0  0  0  0  0  0  0  0  0
    1.3900   -1.8163    0.0000 H   0  0  0  0  0  0  0  0  0  0  0  0
    1.7864   -2.5092    0.0000 H   0  0  0  0  0  0  0  0  0  0  0  0
    9.5936    2.4696    0.0000 H   0  0  0  0  0  0  0  0  0  0  0  0
  7  1  1  1  0  0  0 
  1 45  1  0  0  0  0 
  2  3  1  0  0  0  0 
  2  4  1  0  0  0  0 
  2  8  1  0  0  0  0 
  2 22  1  6  0  0  0 
  3  6  1  0  0  0  0 
  3  7  1  0  0  0  0 
  3 13  1  1  0  0  0 
  4  5  1  0  0  0  0 
  4 12  1  0  0  0  0 
  4 23  1  1  0  0  0 
  5  9  1  0  0  0  0 
  5 10  1  0  0  0  0 
  5 24  1  6  0  0  0 
  6  9  1  0  0  0  0 
  6 25  1  0  0  0  0 
  6 26  1  0  0  0  0 
  7 11  1  0  0  0  0 
  7 18  1  0  0  0  0 
  8 11  1  0  0  0  0 
  8 27  1  0  0  0  0 
  8 28  1  0  0  0  0 
  9 29  1  0  0  0  0 
  9 30  1  0  0  0  0 
 10 14  1  0  0  0  0 
 10 16  1  0  0  0  0 
 10 31  1  1  0  0  0 
 11 32  1  0  0  0  0 
 11 33  1  0  0  0  0 
 12 15  1  0  0  0  0 
 12 34  1  0  0  0  0 
 12 35  1  0  0  0  0 
 13 36  1  0  0  0  0 
 13 37  1  0  0  0  0 
 13 38  1  0  0  0  0 
 14 15  1  0  0  0  0 
 14 19  2  0  0  0  0 
 15 39  1  0  0  0  0 
 15 40  1  0  0  0  0 
 16 17  1  0  0  0  0 
 16 41  1  0  0  0  0 
 16 42  1  0  0  0  0 
 17 20  1  0  0  0  0 
 17 43  1  0  0  0  0 
 17 44  1  0  0  0  0 
 18 21  3  0  0  0  0 
 19 20  1  0  0  0  0 
 19 46  1  0  0  0  0 
 20 47  1  0  0  0  0 
 20 48  1  0  0  0  0 
 21 49  1  0  0  0  0 
M  END
> <cdk:Title>
5857

> <cdk:Remark>
null

> <PUBCHEM_COMPOUND_CID>
5857

> <PUBCHEM_COMPOUND_CANONICALIZED>
1

> <PUBCHEM_CACTVS_COMPLEXITY>
523

> <PUBCHEM_CACTVS_HBOND_ACCEPTOR>
1

> <PUBCHEM_CACTVS_HBOND_DONOR>
1

> <PUBCHEM_CACTVS_ROTATABLE_BOND>
1

> <PUBCHEM_CACTVS_SUBSKEYS>
AAADceB4IAAAAAAAAAAAAAAAAAAAAYAAAAAwYIAAAAAAAGDAAAAAGgAACAAAD0SAgAACAAAAAgDAGiBCAAgAAAAgAAAACAAAAAgAAAIAAQAAQAAEgAAIAAOAwPAPgAAAAAAAAACAAAQAACAAAYAADAAAAA==

> <PUBCHEM_IUPAC_OPENEYE_NAME>
(8R,9S,10R,13S,14S,17R)-17-ethynyl-13-methyl-2,3,6,7,8,9,10,11,12,14,15,16-dodecahydro-1H-cyclopenta[a]phenanthren-17-ol

> <PUBCHEM_IUPAC_CAS_NAME>
(8R,9S,10R,13S,14S,17R)-17-ethynyl-13-methyl-2,3,6,7,8,9,10,11,12,14,15,16-dodecahydro-1H-cyclopenta[a]phenanthren-17-ol

> <PUBCHEM_IUPAC_NAME>
(8R,9S,10R,13S,14S,17R)-17-ethynyl-13-methyl-2,3,6,7,8,9,10,11,12,14,15,16-dodecahydro-1H-cyclopenta[a]phenanthren-17-ol

> <PUBCHEM_IUPAC_SYSTEMATIC_NAME>
(8R,9S,10R,13S,14S,17R)-17-ethynyl-13-methyl-2,3,6,7,8,9,10,11,12,14,15,16-dodecahydro-1H-cyclopenta[a]phenanthren-17-ol

> <PUBCHEM_IUPAC_TRADITIONAL_NAME>
(8R,9S,10R,13S,14S,17R)-17-ethynyl-13-methyl-2,3,6,7,8,9,10,11,12,14,15,16-dodecahydro-1H-cyclopenta[a]phenanthren-17-ol

> <PUBCHEM_IUPAC_INCHI>
InChI=1S/C20H28O/c1-3-20(21)13-11-18-17-9-8-14-6-4-5-7-15(14)16(17)10-12-19(18,20)2/h1,6,15-18,21H,4-5,7-13H2,2H3/t15-,16+,17+,18-,19-,20-/m0/s1

> <PUBCHEM_IUPAC_INCHIKEY>
YNVGQYHLRCDXFQ-XGXHKTLJSA-N

> <PUBCHEM_XLOGP3>
4.5

> <PUBCHEM_EXACT_MASS>
284.214016

> <PUBCHEM_MOLECULAR_FORMULA>
C20H28O

> <PUBCHEM_MOLECULAR_WEIGHT>
284.43572

> <PUBCHEM_OPENEYE_CAN_SMILES>
CC12CCC3C(C1CCC2(C#C)O)CCC4=CCCCC34

> <PUBCHEM_OPENEYE_ISO_SMILES>
C[C@]12CC[C@H]3[C@H]([C@@H]1CC[C@]2(C#C)O)CCC4=CCCC[C@H]34

> <PUBCHEM_CACTVS_TPSA>
20.2

> <PUBCHEM_MONOISOTOPIC_WEIGHT>
284.214016

> <PUBCHEM_TOTAL_CHARGE>
0

> <PUBCHEM_HEAVY_ATOM_COUNT>
21

> <PUBCHEM_ATOM_DEF_STEREO_COUNT>
6

> <PUBCHEM_ATOM_UDEF_STEREO_COUNT>
0

> <PUBCHEM_BOND_DEF_STEREO_COUNT>
0

> <PUBCHEM_BOND_UDEF_STEREO_COUNT>
0

> <PUBCHEM_ISOTOPIC_ATOM_COUNT>
0

> <PUBCHEM_COMPONENT_COUNT>
1

> <PUBCHEM_CACTVS_TAUTO_COUNT>
1

> <PUBCHEM_COORDINATE_TYPE>
1
5
255

> <PUBCHEM_BONDANNOTATIONS>
7  1  5
10  31  5
2  22  6
3  13  5
4  23  5
5  24  6

> <DRUG_ID>
w170

> <DRUG_NAME>
Lynestrenol

$$$$
31473
  CDK     0927151942
null
 65 66  0  0  0  0  0  0  0  0999 V2000
    2.8660   -4.7500    0.0000 O   0  0  0  0  0  0  0  0  0  0  0  0
    3.7320   -0.2500    0.0000 O   0  0  0  0  0  0  0  0  0  0  0  0
    5.4641   -1.2500    0.0000 O   0  0  0  0  0  0  0  0  0  0  0  0
    5.4641   -0.2500    0.0000 O   0  0  0  0  0  0  0  0  0  0  0  0
    2.8660    3.2500    0.0000 O   0  0  0  0  0  0  0  0  0  0  0  0
    6.3301    3.2500    0.0000 O   0  0  0  0  0  0  0  0  0  0  0  0
    4.5981    4.2500    0.0000 O   0  0  0  0  0  0  0  0  0  0  0  0
    2.8660   -2.7500    0.0000 N   0  0  0  0  0  0  0  0  0  0  0  0
    2.8660   -1.7500    0.0000 C   0  0  0  0  0  0  0  0  0  0  0  0
    3.7320   -1.2500    0.0000 C   0  0  3  0  0  0  0  0  0  0  0  0
    3.7320   -3.2500    0.0000 C   0  0  0  0  0  0  0  0  0  0  0  0
    2.0000   -3.2500    0.0000 C   0  0  0  0  0  0  0  0  0  0  0  0
    3.7320   -4.2500    0.0000 C   0  0  0  0  0  0  0  0  0  0  0  0
    2.0000   -4.2500    0.0000 C   0  0  0  0  0  0  0  0  0  0  0  0
    4.5981   -1.7500    0.0000 C   0  0  0  0  0  0  0  0  0  0  0  0
    7.1962   -1.2500    0.0000 C   0  0  0  0  0  0  0  0  0  0  0  0
    8.0622   -1.7500    0.0000 C   0  0  0  0  0  0  0  0  0  0  0  0
    6.3301   -1.7500    0.0000 C   0  0  0  0  0  0  0  0  0  0  0  0
    8.9282   -1.2500    0.0000 C   0  0  0  0  0  0  0  0  0  0  0  0
    8.0622   -2.7500    0.0000 C   0  0  0  0  0  0  0  0  0  0  0  0
    4.5981    0.2500    0.0000 C   0  0  0  0  0  0  0  0  0  0  0  0
    4.5981    1.2500    0.0000 C   0  0  0  0  0  0  0  0  0  0  0  0
    5.4641    1.7500    0.0000 C   0  0  0  0  0  0  0  0  0  0  0  0
    3.7320    1.7500    0.0000 C   0  0  0  0  0  0  0  0  0  0  0  0
    3.7320    2.7500    0.0000 C   0  0  0  0  0  0  0  0  0  0  0  0
    5.4641    2.7500    0.0000 C   0  0  0  0  0  0  0  0  0  0  0  0
    4.5981    3.2500    0.0000 C   0  0  0  0  0  0  0  0  0  0  0  0
    2.0000    2.7500    0.0000 C   0  0  0  0  0  0  0  0  0  0  0  0
    7.1962    2.7500    0.0000 C   0  0  0  0  0  0  0  0  0  0  0  0
    5.4641    4.7500    0.0000 C   0  0  0  0  0  0  0  0  0  0  0  0
    2.6540   -1.1674    0.0000 H   0  0  0  0  0  0  0  0  0  0  0  0
    2.2554   -1.8577    0.0000 H   0  0  0  0  0  0  0  0  0  0  0  0
    4.2690   -0.9400    0.0000 H   0  0  0  0  0  0  0  0  0  0  0  0
    4.3426   -3.3577    0.0000 H   0  0  0  0  0  0  0  0  0  0  0  0
    3.9441   -2.6674    0.0000 H   0  0  0  0  0  0  0  0  0  0  0  0
    1.7880   -2.6674    0.0000 H   0  0  0  0  0  0  0  0  0  0  0  0
    1.3894   -3.3577    0.0000 H   0  0  0  0  0  0  0  0  0  0  0  0
    1.3894   -4.1423    0.0000 H   0  0  0  0  0  0  0  0  0  0  0  0
    1.7880   -4.8326    0.0000 H   0  0  0  0  0  0  0  0  0  0  0  0
    3.9441   -4.8326    0.0000 H   0  0  0  0  0  0  0  0  0  0  0  0
    4.3426   -4.1423    0.0000 H   0  0  0  0  0  0  0  0  0  0  0  0
    4.1996   -2.2250    0.0000 H   0  0  0  0  0  0  0  0  0  0  0  0
    4.9966   -2.2250    0.0000 H   0  0  0  0  0  0  0  0  0  0  0  0
    7.5947   -0.7751    0.0000 H   0  0  0  0  0  0  0  0  0  0  0  0
    6.7976   -0.7751    0.0000 H   0  0  0  0  0  0  0  0  0  0  0  0
    8.0622   -1.1300    0.0000 H   0  0  0  0  0  0  0  0  0  0  0  0
    5.9316   -2.2250    0.0000 H   0  0  0  0  0  0  0  0  0  0  0  0
    6.7287   -2.2250    0.0000 H   0  0  0  0  0  0  0  0  0  0  0  0
    7.4422   -2.7500    0.0000 H   0  0  0  0  0  0  0  0  0  0  0  0
    9.2382   -1.7869    0.0000 H   0  0  0  0  0  0  0  0  0  0  0  0
    9.4651   -0.9400    0.0000 H   0  0  0  0  0  0  0  0  0  0  0  0
    8.6182   -0.7131    0.0000 H   0  0  0  0  0  0  0  0  0  0  0  0
    8.0622   -3.3700    0.0000 H   0  0  0  0  0  0  0  0  0  0  0  0
    8.6822   -2.7500    0.0000 H   0  0  0  0  0  0  0  0  0  0  0  0
    6.0010    1.4400    0.0000 H   0  0  0  0  0  0  0  0  0  0  0  0
    3.1951    1.4400    0.0000 H   0  0  0  0  0  0  0  0  0  0  0  0
    1.6900    3.2869    0.0000 H   0  0  0  0  0  0  0  0  0  0  0  0
    1.4631    2.4400    0.0000 H   0  0  0  0  0  0  0  0  0  0  0  0
    2.3100    2.2131    0.0000 H   0  0  0  0  0  0  0  0  0  0  0  0
    6.8862    2.2131    0.0000 H   0  0  0  0  0  0  0  0  0  0  0  0
    7.7331    2.4400    0.0000 H   0  0  0  0  0  0  0  0  0  0  0  0
    7.5062    3.2869    0.0000 H   0  0  0  0  0  0  0  0  0  0  0  0
    5.7741    4.2131    0.0000 H   0  0  0  0  0  0  0  0  0  0  0  0
    6.0010    5.0600    0.0000 H   0  0  0  0  0  0  0  0  0  0  0  0
    5.1541    5.2869    0.0000 H   0  0  0  0  0  0  0  0  0  0  0  0
  1 13  1  0  0  0  0 
  1 14  1  0  0  0  0 
  2 10  1  0  0  0  0 
  2 21  1  0  0  0  0 
  3 15  1  0  0  0  0 
  3 18  1  0  0  0  0 
  4 21  2  0  0  0  0 
  5 25  1  0  0  0  0 
  5 28  1  0  0  0  0 
  6 26  1  0  0  0  0 
  6 29  1  0  0  0  0 
  7 27  1  0  0  0  0 
  7 30  1  0  0  0  0 
  8  9  1  0  0  0  0 
  8 11  1  0  0  0  0 
  8 12  1  0  0  0  0 
  9 10  1  0  0  0  0 
  9 31  1  0  0  0  0 
  9 32  1  0  0  0  0 
 10 15  1  0  0  0  0 
 10 33  1  0  0  0  0 
 11 13  1  0  0  0  0 
 11 34  1  0  0  0  0 
 11 35  1  0  0  0  0 
 12 14  1  0  0  0  0 
 12 36  1  0  0  0  0 
 12 37  1  0  0  0  0 
 13 40  1  0  0  0  0 
 13 41  1  0  0  0  0 
 14 38  1  0  0  0  0 
 14 39  1  0  0  0  0 
 15 42  1  0  0  0  0 
 15 43  1  0  0  0  0 
 16 17  1  0  0  0  0 
 16 18  1  0  0  0  0 
 16 44  1  0  0  0  0 
 16 45  1  0  0  0  0 
 17 19  1  0  0  0  0 
 17 20  1  0  0  0  0 
 17 46  1  0  0  0  0 
 18 47  1  0  0  0  0 
 18 48  1  0  0  0  0 
 19 50  1  0  0  0  0 
 19 51  1  0  0  0  0 
 19 52  1  0  0  0  0 
 20 49  1  0  0  0  0 
 20 53  1  0  0  0  0 
 20 54  1  0  0  0  0 
 21 22  1  0  0  0  0 
 22 23  2  0  0  0  0 
 22 24  1  0  0  0  0 
 23 26  1  0  0  0  0 
 23 55  1  0  0  0  0 
 24 25  2  0  0  0  0 
 24 56  1  0  0  0  0 
 25 27  1  0  0  0  0 
 26 27  2  0  0  0  0 
 28 57  1  0  0  0  0 
 28 58  1  0  0  0  0 
 28 59  1  0  0  0  0 
 29 60  1  0  0  0  0 
 29 61  1  0  0  0  0 
 29 62  1  0  0  0  0 
 30 63  1  0  0  0  0 
 30 64  1  0  0  0  0 
 30 65  1  0  0  0  0 
M  END
> <cdk:Title>
31473

> <cdk:Remark>
null

> <PUBCHEM_COMPOUND_CID>
31473

> <PUBCHEM_COMPOUND_CANONICALIZED>
1

> <PUBCHEM_CACTVS_COMPLEXITY>
470

> <PUBCHEM_CACTVS_HBOND_ACCEPTOR>
8

> <PUBCHEM_CACTVS_HBOND_DONOR>
0

> <PUBCHEM_CACTVS_ROTATABLE_BOND>
13

> <PUBCHEM_CACTVS_SUBSKEYS>
AAADcfB6OAAAAAAAAAAAAAAAAAAAAAAAAAA8QAAAAAAAAAABAAAAHgAAAAAADRThmAYyDoMABACIAiDSCAACCAAkIAAAiAEOiMgPJzKENRqHMSInwBWaqYfK7DzOIAABCAAAQABAAAIQAACAAAAAAAAAAA==

> <PUBCHEM_IUPAC_OPENEYE_NAME>
[1-(isopentyloxymethyl)-2-morpholino-ethyl] 3,4,5-trimethoxybenzoate

> <PUBCHEM_IUPAC_CAS_NAME>
3,4,5-trimethoxybenzoic acid [1-(3-methylbutoxy)-3-(4-morpholinyl)propan-2-yl] ester

> <PUBCHEM_IUPAC_NAME>
[1-(3-methylbutoxy)-3-morpholin-4-ylpropan-2-yl] 3,4,5-trimethoxybenzoate

> <PUBCHEM_IUPAC_SYSTEMATIC_NAME>
[1-(3-methylbutoxy)-3-morpholin-4-yl-propan-2-yl] 3,4,5-trimethoxybenzoate

> <PUBCHEM_IUPAC_TRADITIONAL_NAME>
3,4,5-trimethoxybenzoic acid [1-(isoamoxymethyl)-2-morpholino-ethyl] ester

> <PUBCHEM_IUPAC_INCHI>
InChI=1S/C22H35NO7/c1-16(2)6-9-29-15-18(14-23-7-10-28-11-8-23)30-22(24)17-12-19(25-3)21(27-5)20(13-17)26-4/h12-13,16,18H,6-11,14-15H2,1-5H3

> <PUBCHEM_IUPAC_INCHIKEY>
YOKPRDAUBGOISU-UHFFFAOYSA-N

> <PUBCHEM_XLOGP3_AA>
3

> <PUBCHEM_EXACT_MASS>
425.241352

> <PUBCHEM_MOLECULAR_FORMULA>
C22H35NO7

> <PUBCHEM_MOLECULAR_WEIGHT>
425.5158

> <PUBCHEM_OPENEYE_CAN_SMILES>
CC(C)CCOCC(CN1CCOCC1)OC(=O)C2=CC(=C(C(=C2)OC)OC)OC

> <PUBCHEM_OPENEYE_ISO_SMILES>
CC(C)CCOCC(CN1CCOCC1)OC(=O)C2=CC(=C(C(=C2)OC)OC)OC

> <PUBCHEM_CACTVS_TPSA>
75.7

> <PUBCHEM_MONOISOTOPIC_WEIGHT>
425.241352

> <PUBCHEM_TOTAL_CHARGE>
0

> <PUBCHEM_HEAVY_ATOM_COUNT>
30

> <PUBCHEM_ATOM_DEF_STEREO_COUNT>
0

> <PUBCHEM_ATOM_UDEF_STEREO_COUNT>
1

> <PUBCHEM_BOND_DEF_STEREO_COUNT>
0

> <PUBCHEM_BOND_UDEF_STEREO_COUNT>
0

> <PUBCHEM_ISOTOPIC_ATOM_COUNT>
0

> <PUBCHEM_COMPONENT_COUNT>
1

> <PUBCHEM_CACTVS_TAUTO_COUNT>
1

> <PUBCHEM_COORDINATE_TYPE>
1
5
255

> <PUBCHEM_BONDANNOTATIONS>
22  23  8
22  24  8
23  26  8
24  25  8
25  27  8
26  27  8
10  9  3

> <DRUG_ID>
w171

> <DRUG_NAME>
Amoproxan

$$$$
24732
  CDK     0927151942
null
118124  0  0  0  0  0  0  0  0999 V2000
    3.3307    4.0741    0.0000 O   0  0  0  0  0  0  0  0  0  0  0  0
    4.1220   13.8484    0.0000 O   0  0  0  0  0  0  0  0  0  0  0  0
    0.5357    0.5218    0.0000 O   0  0  0  0  0  0  0  0  0  0  0  0
    1.3270   10.2960    0.0000 O   0  0  0  0  0  0  0  0  0  0  0  0
    6.5179    5.5737    0.0000 O   0  0  0  0  0  0  0  0  0  0  0  0
    7.3091   15.3479    0.0000 O   0  0  0  0  0  0  0  0  0  0  0  0
    8.4749    5.9861    0.0000 O   0  0  0  0  0  0  0  0  0  0  0  0
   10.1212    5.4480    0.0000 O   0  0  0  0  0  0  0  0  0  0  0  0
    5.0628    2.0741    0.0000 C   0  0  1  0  0  0  0  0  0  0  0  0
    5.9288    2.5741    0.0000 C   0  0  1  0  0  0  0  0  0  0  0  0
    5.8540   11.8484    0.0000 C   0  0  1  0  0  0  0  0  0  0  0  0
    6.7201   12.3484    0.0000 C   0  0  1  0  0  0  0  0  0  0  0  0
    4.1968    2.5741    0.0000 C   0  0  1  0  0  0  0  0  0  0  0  0
    5.9288    3.5741    0.0000 C   0  0  1  0  0  0  0  0  0  0  0  0
    4.9880   12.3484    0.0000 C   0  0  1  0  0  0  0  0  0  0  0  0
    3.2868    2.0673    0.0000 C   0  0  2  0  0  0  0  0  0  0  0  0
    6.7201   13.3484    0.0000 C   0  0  1  0  0  0  0  0  0  0  0  0
    4.0780   11.8415    0.0000 C   0  0  2  0  0  0  0  0  0  0  0  0
    3.2787    1.0257    0.0000 C   0  0  1  0  0  0  0  0  0  0  0  0
    4.0700   10.7999    0.0000 C   0  0  1  0  0  0  0  0  0  0  0  0
    5.0789    1.0326    0.0000 C   0  0  0  0  0  0  0  0  0  0  0  0
    6.8750    3.8789    0.0000 C   0  0  2  0  0  0  0  0  0  0  0  0
    5.8701   10.8069    0.0000 C   0  0  0  0  0  0  0  0  0  0  0  0
    7.6663   13.6531    0.0000 C   0  0  2  0  0  0  0  0  0  0  0  0
    6.8750    2.2694    0.0000 C   0  0  0  0  0  0  0  0  0  0  0  0
    7.6663   12.0436    0.0000 C   0  0  0  0  0  0  0  0  0  0  0  0
    5.0628    4.0741    0.0000 C   0  0  0  0  0  0  0  0  0  0  0  0
    5.8540   13.8484    0.0000 C   0  0  0  0  0  0  0  0  0  0  0  0
    4.1808    0.5049    0.0000 C   0  0  0  0  0  0  0  0  0  0  0  0
    4.9721   10.2791    0.0000 C   0  0  0  0  0  0  0  0  0  0  0  0
    4.1968    3.5741    0.0000 C   0  0  0  0  0  0  0  0  0  0  0  0
    4.9880   13.3484    0.0000 C   0  0  0  0  0  0  0  0  0  0  0  0
    7.4586    3.0741    0.0000 C   0  0  0  0  0  0  0  0  0  0  0  0
    2.3599    2.6314    0.0000 C   0  0  0  0  0  0  0  0  0  0  0  0
    8.2499   12.8484    0.0000 C   0  0  0  0  0  0  0  0  0  0  0  0
    3.1512   12.4056    0.0000 C   0  0  0  0  0  0  0  0  0  0  0  0
    2.3433    0.4760    0.0000 C   0  0  0  0  0  0  0  0  0  0  0  0
    3.1346   10.2502    0.0000 C   0  0  0  0  0  0  0  0  0  0  0  0
    5.9288    4.5741    0.0000 C   0  0  0  0  0  0  0  0  0  0  0  0
    3.2945    3.0673    0.0000 C   0  0  0  0  0  0  0  0  0  0  0  0
    6.7201   14.3484    0.0000 C   0  0  0  0  0  0  0  0  0  0  0  0
    4.0857   12.8415    0.0000 C   0  0  0  0  0  0  0  0  0  0  0  0
    1.4120    2.1034    0.0000 C   0  0  0  0  0  0  0  0  0  0  0  0
    2.2033   11.8777    0.0000 C   0  0  0  0  0  0  0  0  0  0  0  0
    1.4037    1.0185    0.0000 C   0  0  1  0  0  0  0  0  0  0  0  0
    2.1949   10.7927    0.0000 C   0  0  1  0  0  0  0  0  0  0  0  0
    7.1857    4.8294    0.0000 C   0  0  0  0  0  0  0  0  0  0  0  0
    7.9769   14.6036    0.0000 C   0  0  0  0  0  0  0  0  0  0  0  0
    8.1642    5.0356    0.0000 C   0  0  0  0  0  0  0  0  0  0  0  0
    8.9555   14.8098    0.0000 C   0  0  0  0  0  0  0  0  0  0  0  0
    9.4534    6.1924    0.0000 C   0  0  0  0  0  0  0  0  0  0  0  0
    9.7640    7.1429    0.0000 C   0  0  0  0  0  0  0  0  0  0  0  0
    5.8022    1.6548    0.0000 H   0  0  0  0  0  0  0  0  0  0  0  0
    6.0188    1.7289    0.0000 H   0  0  0  0  0  0  0  0  0  0  0  0
    6.5934   11.4291    0.0000 H   0  0  0  0  0  0  0  0  0  0  0  0
    6.8100   11.5031    0.0000 H   0  0  0  0  0  0  0  0  0  0  0  0
    4.9329    2.9991    0.0000 H   0  0  0  0  0  0  0  0  0  0  0  0
    5.7241   12.7734    0.0000 H   0  0  0  0  0  0  0  0  0  0  0  0
    3.2820    0.1757    0.0000 H   0  0  0  0  0  0  0  0  0  0  0  0
    4.0733    9.9499    0.0000 H   0  0  0  0  0  0  0  0  0  0  0  0
    5.2969    0.4522    0.0000 H   0  0  0  0  0  0  0  0  0  0  0  0
    5.6880    1.1481    0.0000 H   0  0  0  0  0  0  0  0  0  0  0  0
    7.4875    3.9751    0.0000 H   0  0  0  0  0  0  0  0  0  0  0  0
    6.0881   10.2265    0.0000 H   0  0  0  0  0  0  0  0  0  0  0  0
    6.4792   10.9224    0.0000 H   0  0  0  0  0  0  0  0  0  0  0  0
    7.2288   14.0925    0.0000 H   0  0  0  0  0  0  0  0  0  0  0  0
    6.6240    1.7025    0.0000 H   0  0  0  0  0  0  0  0  0  0  0  0
    7.4124    1.9602    0.0000 H   0  0  0  0  0  0  0  0  0  0  0  0
    7.4152   11.4767    0.0000 H   0  0  0  0  0  0  0  0  0  0  0  0
    8.2037   11.7344    0.0000 H   0  0  0  0  0  0  0  0  0  0  0  0
    5.4613    4.5491    0.0000 H   0  0  0  0  0  0  0  0  0  0  0  0
    4.6643    4.5491    0.0000 H   0  0  0  0  0  0  0  0  0  0  0  0
    6.2526   14.3233    0.0000 H   0  0  0  0  0  0  0  0  0  0  0  0
    5.4555   14.3233    0.0000 H   0  0  0  0  0  0  0  0  0  0  0  0
    3.7835    0.0289    0.0000 H   0  0  0  0  0  0  0  0  0  0  0  0
    4.5818    0.0320    0.0000 H   0  0  0  0  0  0  0  0  0  0  0  0
    4.5748    9.8031    0.0000 H   0  0  0  0  0  0  0  0  0  0  0  0
    5.3730    9.8062    0.0000 H   0  0  0  0  0  0  0  0  0  0  0  0
    7.9195    2.6594    0.0000 H   0  0  0  0  0  0  0  0  0  0  0  0
    7.9195    3.4889    0.0000 H   0  0  0  0  0  0  0  0  0  0  0  0
    2.7681    3.0980    0.0000 H   0  0  0  0  0  0  0  0  0  0  0  0
    1.9700    3.1134    0.0000 H   0  0  0  0  0  0  0  0  0  0  0  0
    8.7108   12.4336    0.0000 H   0  0  0  0  0  0  0  0  0  0  0  0
    8.7108   13.2631    0.0000 H   0  0  0  0  0  0  0  0  0  0  0  0
    3.5594   12.8723    0.0000 H   0  0  0  0  0  0  0  0  0  0  0  0
    2.7612   12.8876    0.0000 H   0  0  0  0  0  0  0  0  0  0  0  0
    1.9460    0.0000    0.0000 H   0  0  0  0  0  0  0  0  0  0  0  0
    2.7443    0.0031    0.0000 H   0  0  0  0  0  0  0  0  0  0  0  0
    2.7372    9.7742    0.0000 H   0  0  0  0  0  0  0  0  0  0  0  0
    3.5355    9.7773    0.0000 H   0  0  0  0  0  0  0  0  0  0  0  0
    6.5488    4.5741    0.0000 H   0  0  0  0  0  0  0  0  0  0  0  0
    5.9288    5.1941    0.0000 H   0  0  0  0  0  0  0  0  0  0  0  0
    5.3088    4.5741    0.0000 H   0  0  0  0  0  0  0  0  0  0  0  0
    3.9145    3.0625    0.0000 H   0  0  0  0  0  0  0  0  0  0  0  0
    3.2993    3.6872    0.0000 H   0  0  0  0  0  0  0  0  0  0  0  0
    2.6745    3.0720    0.0000 H   0  0  0  0  0  0  0  0  0  0  0  0
    7.3401   14.3484    0.0000 H   0  0  0  0  0  0  0  0  0  0  0  0
    6.7201   14.9684    0.0000 H   0  0  0  0  0  0  0  0  0  0  0  0
    6.1001   14.3484    0.0000 H   0  0  0  0  0  0  0  0  0  0  0  0
    4.7057   12.8367    0.0000 H   0  0  0  0  0  0  0  0  0  0  0  0
    4.0905   13.4615    0.0000 H   0  0  0  0  0  0  0  0  0  0  0  0
    3.4657   12.8463    0.0000 H   0  0  0  0  0  0  0  0  0  0  0  0
    1.2075    2.6887    0.0000 H   0  0  0  0  0  0  0  0  0  0  0  0
    0.8004    2.0020    0.0000 H   0  0  0  0  0  0  0  0  0  0  0  0
    1.9987   12.4629    0.0000 H   0  0  0  0  0  0  0  0  0  0  0  0
    1.5916   11.7763    0.0000 H   0  0  0  0  0  0  0  0  0  0  0  0
    0.8685    1.3316    0.0000 H   0  0  0  0  0  0  0  0  0  0  0  0
    2.1937   10.1727    0.0000 H   0  0  0  0  0  0  0  0  0  0  0  0
    8.1848    4.4159    0.0000 H   0  0  0  0  0  0  0  0  0  0  0  0
    8.7780    4.9483    0.0000 H   0  0  0  0  0  0  0  0  0  0  0  0
    9.0833   14.2032    0.0000 H   0  0  0  0  0  0  0  0  0  0  0  0
    9.5621   14.9377    0.0000 H   0  0  0  0  0  0  0  0  0  0  0  0
    8.8276   15.4165    0.0000 H   0  0  0  0  0  0  0  0  0  0  0  0
    0.0000    0.8339    0.0000 H   0  0  0  0  0  0  0  0  0  0  0  0
    0.7912   10.6081    0.0000 H   0  0  0  0  0  0  0  0  0  0  0  0
   10.3534    6.9503    0.0000 H   0  0  0  0  0  0  0  0  0  0  0  0
    9.9566    7.7322    0.0000 H   0  0  0  0  0  0  0  0  0  0  0  0
    9.1747    7.3355    0.0000 H   0  0  0  0  0  0  0  0  0  0  0  0
  1 31  2  0  0  0  0 
  2 32  2  0  0  0  0 
 45  3  1  6  0  0  0 
  3114  1  0  0  0  0 
 46  4  1  6  0  0  0 
  4115  1  0  0  0  0 
  5 47  2  0  0  0  0 
  6 48  2  0  0  0  0 
  7 49  1  0  0  0  0 
  7 51  1  0  0  0  0 
  8 51  2  0  0  0  0 
  9 10  1  0  0  0  0 
  9 13  1  0  0  0  0 
  9 21  1  0  0  0  0 
  9 53  1  1  0  0  0 
 10 14  1  0  0  0  0 
 10 25  1  0  0  0  0 
 10 54  1  6  0  0  0 
 11 12  1  0  0  0  0 
 11 15  1  0  0  0  0 
 11 23  1  0  0  0  0 
 11 55  1  1  0  0  0 
 12 17  1  0  0  0  0 
 12 26  1  0  0  0  0 
 12 56  1  6  0  0  0 
 13 16  1  0  0  0  0 
 13 31  1  0  0  0  0 
 13 57  1  6  0  0  0 
 14 22  1  0  0  0  0 
 14 27  1  0  0  0  0 
 14 39  1  1  0  0  0 
 15 18  1  0  0  0  0 
 15 32  1  0  0  0  0 
 15 58  1  6  0  0  0 
 16 19  1  0  0  0  0 
 16 34  1  0  0  0  0 
 16 40  1  1  0  0  0 
 17 24  1  0  0  0  0 
 17 28  1  0  0  0  0 
 17 41  1  1  0  0  0 
 18 20  1  0  0  0  0 
 18 36  1  0  0  0  0 
 18 42  1  1  0  0  0 
 19 29  1  0  0  0  0 
 19 37  1  0  0  0  0 
 19 59  1  6  0  0  0 
 20 30  1  0  0  0  0 
 20 38  1  0  0  0  0 
 20 60  1  6  0  0  0 
 21 29  1  0  0  0  0 
 21 61  1  0  0  0  0 
 21 62  1  0  0  0  0 
 22 33  1  0  0  0  0 
 22 47  1  1  0  0  0 
 22 63  1  0  0  0  0 
 23 30  1  0  0  0  0 
 23 64  1  0  0  0  0 
 23 65  1  0  0  0  0 
 24 35  1  0  0  0  0 
 24 48  1  1  0  0  0 
 24 66  1  0  0  0  0 
 25 33  1  0  0  0  0 
 25 67  1  0  0  0  0 
 25 68  1  0  0  0  0 
 26 35  1  0  0  0  0 
 26 69  1  0  0  0  0 
 26 70  1  0  0  0  0 
 27 31  1  0  0  0  0 
 27 71  1  0  0  0  0 
 27 72  1  0  0  0  0 
 28 32  1  0  0  0  0 
 28 73  1  0  0  0  0 
 28 74  1  0  0  0  0 
 29 75  1  0  0  0  0 
 29 76  1  0  0  0  0 
 30 77  1  0  0  0  0 
 30 78  1  0  0  0  0 
 33 79  1  0  0  0  0 
 33 80  1  0  0  0  0 
 34 43  1  0  0  0  0 
 34 81  1  0  0  0  0 
 34 82  1  0  0  0  0 
 35 83  1  0  0  0  0 
 35 84  1  0  0  0  0 
 36 44  1  0  0  0  0 
 36 85  1  0  0  0  0 
 36 86  1  0  0  0  0 
 37 45  1  0  0  0  0 
 37 87  1  0  0  0  0 
 37 88  1  0  0  0  0 
 38 46  1  0  0  0  0 
 38 89  1  0  0  0  0 
 38 90  1  0  0  0  0 
 39 91  1  0  0  0  0 
 39 92  1  0  0  0  0 
 39 93  1  0  0  0  0 
 40 94  1  0  0  0  0 
 40 95  1  0  0  0  0 
 40 96  1  0  0  0  0 
 41 97  1  0  0  0  0 
 41 98  1  0  0  0  0 
 41 99  1  0  0  0  0 
 42100  1  0  0  0  0 
 42101  1  0  0  0  0 
 42102  1  0  0  0  0 
 43 45  1  0  0  0  0 
 43103  1  0  0  0  0 
 43104  1  0  0  0  0 
 44 46  1  0  0  0  0 
 44105  1  0  0  0  0 
 44106  1  0  0  0  0 
 45107  1  0  0  0  0 
 46108  1  0  0  0  0 
 47 49  1  0  0  0  0 
 48 50  1  0  0  0  0 
 49109  1  0  0  0  0 
 49110  1  0  0  0  0 
 50111  1  0  0  0  0 
 50112  1  0  0  0  0 
 50113  1  0  0  0  0 
 51 52  1  0  0  0  0 
 52116  1  0  0  0  0 
 52117  1  0  0  0  0 
 52118  1  0  0  0  0 
M  END
> <cdk:Title>
24732

> <cdk:Remark>
null

> <PUBCHEM_COMPOUND_CID>
24732

> <PUBCHEM_COMPOUND_CANONICALIZED>
1

> <PUBCHEM_CACTVS_COMPLEXITY>
1260

> <PUBCHEM_CACTVS_HBOND_ACCEPTOR>
8

> <PUBCHEM_CACTVS_HBOND_DONOR>
2

> <PUBCHEM_CACTVS_ROTATABLE_BOND>
5

> <PUBCHEM_CACTVS_SUBSKEYS>
AAADcfB8PAAAAAAAAAAAAAAAAAAAAYMAAAAwYMGDAAAAAGDAAAAAGgAACAAADxSggAICCAAABgAIAICQCAIAAAAAAAAAAAFAAAAAEBIAAAQCQAAEAAAAAAGIyvCvgAAAAAAAAADAAAYAACAAAQAACAAAAA==

> <PUBCHEM_IUPAC_OPENEYE_NAME>
(3R,5S,8S,9S,10S,13S,14S,17S)-17-acetyl-3-hydroxy-10,13-dimethyl-1,2,3,4,5,6,7,8,9,12,14,15,16,17-tetradecahydrocyclopenta[a]phenanthren-11-one;[2-[(3R,5S,8S,9S,10S,13S,14S,17S)-3-hydroxy-10,13-dimethyl-11-oxo-1,2,3,4,5,6,7,8,9,12,14,15,16,17-tetradecahydrocyclopenta[a]phenanthren-17-yl]-2-oxo-ethyl] acetate

> <PUBCHEM_IUPAC_CAS_NAME>
acetic acid [2-[(3R,5S,8S,9S,10S,13S,14S,17S)-3-hydroxy-10,13-dimethyl-11-oxo-1,2,3,4,5,6,7,8,9,12,14,15,16,17-tetradecahydrocyclopenta[a]phenanthren-17-yl]-2-oxoethyl] ester;(3R,5S,8S,9S,10S,13S,14S,17S)-17-acetyl-3-hydroxy-10,13-dimethyl-1,2,3,4,5,6,7,8,9,12,14,15,16,17-tetradecahydrocyclopenta[a]phenanthren-11-one

> <PUBCHEM_IUPAC_NAME>
(3R,5S,8S,9S,10S,13S,14S,17S)-17-acetyl-3-hydroxy-10,13-dimethyl-1,2,3,4,5,6,7,8,9,12,14,15,16,17-tetradecahydrocyclopenta[a]phenanthren-11-one;[2-[(3R,5S,8S,9S,10S,13S,14S,17S)-3-hydroxy-10,13-dimethyl-11-oxo-1,2,3,4,5,6,7,8,9,12,14,15,16,17-tetradecahydrocyclopenta[a]phenanthren-17-yl]-2-oxoethyl] acetate

> <PUBCHEM_IUPAC_SYSTEMATIC_NAME>
[2-[(3R,5S,8S,9S,10S,13S,14S,17S)-10,13-dimethyl-3-oxidanyl-11-oxidanylidene-1,2,3,4,5,6,7,8,9,12,14,15,16,17-tetradecahydrocyclopenta[a]phenanthren-17-yl]-2-oxidanylidene-ethyl] ethanoate;(3R,5S,8S,9S,10S,13S,14S,17S)-17-ethanoyl-10,13-dimethyl-3-oxidanyl-1,2,3,4,5,6,7,8,9,12,14,15,16,17-tetradecahydrocyclopenta[a]phenanthren-11-one

> <PUBCHEM_IUPAC_TRADITIONAL_NAME>
acetic acid [2-[(3R,5S,8S,9S,10S,13S,14S,17S)-3-hydroxy-11-keto-10,13-dimethyl-1,2,3,4,5,6,7,8,9,12,14,15,16,17-tetradecahydrocyclopenta[a]phenanthren-17-yl]-2-keto-ethyl] ester;(3R,5S,8S,9S,10S,13S,14S,17S)-17-acetyl-3-hydroxy-10,13-dimethyl-1,2,3,4,5,6,7,8,9,12,14,15,16,17-tetradecahydrocyclopenta[a]phenanthren-11-one

> <PUBCHEM_IUPAC_INCHI>
InChI=1S/C23H34O5.C21H32O3/c1-13(24)28-12-20(27)18-7-6-17-16-5-4-14-10-15(25)8-9-22(14,2)21(16)19(26)11-23(17,18)3;1-12(22)16-6-7-17-15-5-4-13-10-14(23)8-9-20(13,2)19(15)18(24)11-21(16,17)3/h14-18,21,25H,4-12H2,1-3H3;13-17,19,23H,4-11H2,1-3H3/t14-,15+,16-,17-,18+,21+,22-,23-;13-,14+,15-,16+,17-,19+,20-,21+/m00/s1

> <PUBCHEM_IUPAC_INCHIKEY>
YYPNLXNMXQFMHG-GSEHKNNPSA-N

> <PUBCHEM_EXACT_MASS>
722.475769

> <PUBCHEM_MOLECULAR_FORMULA>
C44H66O8

> <PUBCHEM_MOLECULAR_WEIGHT>
722.99004

> <PUBCHEM_OPENEYE_CAN_SMILES>
CC(=O)C1CCC2C1(CC(=O)C3C2CCC4C3(CCC(C4)O)C)C.CC(=O)OCC(=O)C1CCC2C1(CC(=O)C3C2CCC4C3(CCC(C4)O)C)C

> <PUBCHEM_OPENEYE_ISO_SMILES>
CC(=O)[C@H]1CC[C@@H]2[C@@]1(CC(=O)[C@H]3[C@H]2CC[C@@H]4[C@@]3(CC[C@H](C4)O)C)C.CC(=O)OCC(=O)[C@H]1CC[C@@H]2[C@@]1(CC(=O)[C@H]3[C@H]2CC[C@@H]4[C@@]3(CC[C@H](C4)O)C)C

> <PUBCHEM_CACTVS_TPSA>
135

> <PUBCHEM_MONOISOTOPIC_WEIGHT>
722.475769

> <PUBCHEM_TOTAL_CHARGE>
0

> <PUBCHEM_HEAVY_ATOM_COUNT>
52

> <PUBCHEM_ATOM_DEF_STEREO_COUNT>
16

> <PUBCHEM_ATOM_UDEF_STEREO_COUNT>
0

> <PUBCHEM_BOND_DEF_STEREO_COUNT>
0

> <PUBCHEM_BOND_UDEF_STEREO_COUNT>
0

> <PUBCHEM_ISOTOPIC_ATOM_COUNT>
0

> <PUBCHEM_COMPONENT_COUNT>
2

> <PUBCHEM_CACTVS_TAUTO_COUNT>
81

> <PUBCHEM_COORDINATE_TYPE>
1
5
255

> <PUBCHEM_BONDANNOTATIONS>
10  54  6
11  55  5
12  56  6
13  57  6
14  39  5
15  58  6
16  40  5
17  41  5
18  42  5
19  59  6
20  60  6
22  47  5
24  48  5
45  3  6
46  4  6
9  53  5

> <DRUG_ID>
w172

> <DRUG_NAME>
Althesin

$$$$
54677972
  CDK     0927151942
null
 36 38  0  0  0  0  0  0  0  0999 V2000
    6.1808   -2.3750    0.0000 S   0  0  0  0  0  0  0  0  0  0  0  0
    5.6808   -3.2410    0.0000 O   0  0  0  0  0  0  0  0  0  0  0  0
    6.6808   -3.2410    0.0000 O   0  0  0  0  0  0  0  0  0  0  0  0
    6.1808    0.6250    0.0000 O   0  0  0  0  0  0  0  0  0  0  0  0
    3.5827   -0.8750    0.0000 O   0  0  0  0  0  0  0  0  0  0  0  0
    2.0000    1.4614    0.0000 O   0  0  0  0  0  0  0  0  0  0  0  0
    5.3147   -1.8750    0.0000 N   0  0  3  0  0  0  0  0  0  0  0  0
    4.4487    0.6250    0.0000 N   0  0  0  0  0  0  0  0  0  0  0  0
    2.6691    0.7183    0.0000 N   0  0  0  0  0  0  0  0  0  0  0  0
    7.0468   -1.8750    0.0000 C   0  0  0  0  0  0  0  0  0  0  0  0
    7.0468   -0.8750    0.0000 C   0  0  0  0  0  0  0  0  0  0  0  0
    5.3147   -0.8750    0.0000 C   0  0  0  0  0  0  0  0  0  0  0  0
    6.1808   -0.3750    0.0000 C   0  0  0  0  0  0  0  0  0  0  0  0
    7.9407   -2.4096    0.0000 C   0  0  0  0  0  0  0  0  0  0  0  0
    4.4487   -2.3750    0.0000 C   0  0  0  0  0  0  0  0  0  0  0  0
    7.9407   -0.3403    0.0000 C   0  0  0  0  0  0  0  0  0  0  0  0
    4.4487   -0.3750    0.0000 C   0  0  0  0  0  0  0  0  0  0  0  0
    8.8468   -1.8958    0.0000 C   0  0  0  0  0  0  0  0  0  0  0  0
    8.8468   -0.8542    0.0000 C   0  0  0  0  0  0  0  0  0  0  0  0
    3.5827    1.1250    0.0000 C   0  0  0  0  0  0  0  0  0  0  0  0
    3.4782    2.1195    0.0000 C   0  0  0  0  0  0  0  0  0  0  0  0
    2.5000    2.3275    0.0000 C   0  0  0  0  0  0  0  0  0  0  0  0
    2.0933    3.2410    0.0000 C   0  0  0  0  0  0  0  0  0  0  0  0
    7.9336   -3.0296    0.0000 H   0  0  0  0  0  0  0  0  0  0  0  0
    4.1387   -1.8380    0.0000 H   0  0  0  0  0  0  0  0  0  0  0  0
    3.9118   -2.6850    0.0000 H   0  0  0  0  0  0  0  0  0  0  0  0
    4.7587   -2.9119    0.0000 H   0  0  0  0  0  0  0  0  0  0  0  0
    7.9336    0.2796    0.0000 H   0  0  0  0  0  0  0  0  0  0  0  0
    9.3825   -2.2079    0.0000 H   0  0  0  0  0  0  0  0  0  0  0  0
    9.3825   -0.5421    0.0000 H   0  0  0  0  0  0  0  0  0  0  0  0
    4.9856    0.9350    0.0000 H   0  0  0  0  0  0  0  0  0  0  0  0
    6.7177    0.9350    0.0000 H   0  0  0  0  0  0  0  0  0  0  0  0
    3.9389    2.5344    0.0000 H   0  0  0  0  0  0  0  0  0  0  0  0
    2.6597    3.4932    0.0000 H   0  0  0  0  0  0  0  0  0  0  0  0
    1.8411    3.8074    0.0000 H   0  0  0  0  0  0  0  0  0  0  0  0
    1.5269    2.9888    0.0000 H   0  0  0  0  0  0  0  0  0  0  0  0
  1  2  2  0  0  0  0 
  1  3  2  0  0  0  0 
  1  7  1  0  0  0  0 
  1 10  1  0  0  0  0 
  4 13  1  0  0  0  0 
  4 32  1  0  0  0  0 
  5 17  2  0  0  0  0 
  6  9  1  0  0  0  0 
  6 22  1  0  0  0  0 
  7 12  1  0  0  0  0 
  7 15  1  0  0  0  0 
  8 17  1  0  0  0  0 
  8 20  1  0  0  0  0 
  8 31  1  0  0  0  0 
  9 20  2  0  0  0  0 
 10 11  1  0  0  0  0 
 10 14  2  0  0  0  0 
 11 13  1  0  0  0  0 
 11 16  2  0  0  0  0 
 12 13  2  0  0  0  0 
 12 17  1  0  0  0  0 
 14 18  1  0  0  0  0 
 14 24  1  0  0  0  0 
 15 25  1  0  0  0  0 
 15 26  1  0  0  0  0 
 15 27  1  0  0  0  0 
 16 19  1  0  0  0  0 
 16 28  1  0  0  0  0 
 18 19  2  0  0  0  0 
 18 29  1  0  0  0  0 
 19 30  1  0  0  0  0 
 20 21  1  0  0  0  0 
 21 22  2  0  0  0  0 
 21 33  1  0  0  0  0 
 22 23  1  0  0  0  0 
 23 34  1  0  0  0  0 
 23 35  1  0  0  0  0 
 23 36  1  0  0  0  0 
M  END
> <cdk:Title>
54677972

> <cdk:Remark>
null

> <PUBCHEM_COMPOUND_CID>
54677972

> <PUBCHEM_COMPOUND_CANONICALIZED>
1

> <PUBCHEM_CACTVS_COMPLEXITY>
627

> <PUBCHEM_CACTVS_HBOND_ACCEPTOR>
7

> <PUBCHEM_CACTVS_HBOND_DONOR>
2

> <PUBCHEM_CACTVS_ROTATABLE_BOND>
2

> <PUBCHEM_CACTVS_SUBSKEYS>
AAADccBzOABAAAAAAAAAAAAAAAAAAWAAAAAwQAAAAAAAAACBwAAAHgQUSAAADAyB2gQztZLQAgKpAqdycnDCABAlIgApmDm+bNqIZirAmbCUcIhm1QvI2UeAwCAOAAAAAAAEAAAAAAAAAAgAAAAAAAAAAA==

> <PUBCHEM_IUPAC_OPENEYE_NAME>
4-hydroxy-2-methyl-N-(5-methylisoxazol-3-yl)-1,1-dioxo-1$l^{6},2-benzothiazine-3-carboxamide

> <PUBCHEM_IUPAC_CAS_NAME>
4-hydroxy-2-methyl-N-(5-methyl-3-isoxazolyl)-1,1-dioxo-1$l^{6},2-benzothiazine-3-carboxamide

> <PUBCHEM_IUPAC_NAME>
4-hydroxy-2-methyl-N-(5-methyl-1,2-oxazol-3-yl)-1,1-dioxo-1$l^{6},2-benzothiazine-3-carboxamide

> <PUBCHEM_IUPAC_SYSTEMATIC_NAME>
2-methyl-N-(5-methyl-1,2-oxazol-3-yl)-4-oxidanyl-1,1-bis(oxidanylidene)-1$l^{6},2-benzothiazine-3-carboxamide

> <PUBCHEM_IUPAC_TRADITIONAL_NAME>
4-hydroxy-1,1-diketo-2-methyl-N-(5-methylisoxazol-3-yl)-1$l^{6},2-benzothiazine-3-carboxamide

> <PUBCHEM_IUPAC_INCHI>
InChI=1S/C14H13N3O5S/c1-8-7-11(16-22-8)15-14(19)12-13(18)9-5-3-4-6-10(9)23(20,21)17(12)2/h3-7,18H,1-2H3,(H,15,16,19)

> <PUBCHEM_IUPAC_INCHIKEY>
YYUAYBYLJSNDCX-UHFFFAOYSA-N

> <PUBCHEM_XLOGP3>
3

> <PUBCHEM_EXACT_MASS>
335.057592

> <PUBCHEM_MOLECULAR_FORMULA>
C14H13N3O5S

> <PUBCHEM_MOLECULAR_WEIGHT>
335.33512

> <PUBCHEM_OPENEYE_CAN_SMILES>
CC1=CC(=NO1)NC(=O)C2=C(C3=CC=CC=C3S(=O)(=O)N2C)O

> <PUBCHEM_OPENEYE_ISO_SMILES>
CC1=CC(=NO1)NC(=O)C2=C(C3=CC=CC=C3S(=O)(=O)N2C)O

> <PUBCHEM_CACTVS_TPSA>
121

> <PUBCHEM_MONOISOTOPIC_WEIGHT>
335.057592

> <PUBCHEM_TOTAL_CHARGE>
0

> <PUBCHEM_HEAVY_ATOM_COUNT>
23

> <PUBCHEM_ATOM_DEF_STEREO_COUNT>
0

> <PUBCHEM_ATOM_UDEF_STEREO_COUNT>
0

> <PUBCHEM_BOND_DEF_STEREO_COUNT>
0

> <PUBCHEM_BOND_UDEF_STEREO_COUNT>
0

> <PUBCHEM_ISOTOPIC_ATOM_COUNT>
0

> <PUBCHEM_COMPONENT_COUNT>
1

> <PUBCHEM_CACTVS_TAUTO_COUNT>
21

> <PUBCHEM_COORDINATE_TYPE>
1
5
255

> <PUBCHEM_BONDANNOTATIONS>
10  11  8
10  14  8
11  16  8
14  18  8
16  19  8
18  19  8
20  21  8
21  22  8
6  22  8
6  9  8
9  20  8

> <DRUG_ID>
w173

> <DRUG_NAME>
Isoxicam

$$$$
60726
  CDK     0927151942
null
 32 33  0  0  0  0  0  0  0  0999 V2000
    2.0000   -1.6550    0.0000 Br  0  0  0  0  0  0  0  0  0  0  0  0
    5.4641    1.3450    0.0000 O   0  0  0  0  0  0  0  0  0  0  0  0
   10.6603    0.3450    0.0000 O   0  0  0  0  0  0  0  0  0  0  0  0
    9.7942   -1.1550    0.0000 O   0  0  0  0  0  0  0  0  0  0  0  0
    7.1962    1.3450    0.0000 N   0  0  0  0  0  0  0  0  0  0  0  0
    8.0622   -0.1550    0.0000 C   0  0  0  0  0  0  0  0  0  0  0  0
    6.3301   -0.1550    0.0000 C   0  0  0  0  0  0  0  0  0  0  0  0
    7.1962    0.3450    0.0000 C   0  0  0  0  0  0  0  0  0  0  0  0
    8.9282    0.3450    0.0000 C   0  0  0  0  0  0  0  0  0  0  0  0
    8.0622   -1.1550    0.0000 C   0  0  0  0  0  0  0  0  0  0  0  0
    5.4641    0.3450    0.0000 C   0  0  0  0  0  0  0  0  0  0  0  0
    6.3301   -1.1550    0.0000 C   0  0  0  0  0  0  0  0  0  0  0  0
    4.5981   -0.1550    0.0000 C   0  0  0  0  0  0  0  0  0  0  0  0
    7.1962   -1.6550    0.0000 C   0  0  0  0  0  0  0  0  0  0  0  0
    3.7320    0.3450    0.0000 C   0  0  0  0  0  0  0  0  0  0  0  0
    4.5981   -1.1550    0.0000 C   0  0  0  0  0  0  0  0  0  0  0  0
    9.7942   -0.1550    0.0000 C   0  0  0  0  0  0  0  0  0  0  0  0
    2.8660   -0.1550    0.0000 C   0  0  0  0  0  0  0  0  0  0  0  0
    3.7320   -1.6550    0.0000 C   0  0  0  0  0  0  0  0  0  0  0  0
    2.8660   -1.1550    0.0000 C   0  0  0  0  0  0  0  0  0  0  0  0
    9.3267    0.8199    0.0000 H   0  0  0  0  0  0  0  0  0  0  0  0
    8.5297    0.8199    0.0000 H   0  0  0  0  0  0  0  0  0  0  0  0
    8.5991   -1.4650    0.0000 H   0  0  0  0  0  0  0  0  0  0  0  0
    5.7932   -1.4650    0.0000 H   0  0  0  0  0  0  0  0  0  0  0  0
    7.1962   -2.2750    0.0000 H   0  0  0  0  0  0  0  0  0  0  0  0
    7.7331    1.6550    0.0000 H   0  0  0  0  0  0  0  0  0  0  0  0
    6.6592    1.6550    0.0000 H   0  0  0  0  0  0  0  0  0  0  0  0
    3.7320    0.9650    0.0000 H   0  0  0  0  0  0  0  0  0  0  0  0
    5.1350   -1.4650    0.0000 H   0  0  0  0  0  0  0  0  0  0  0  0
    2.3291    0.1550    0.0000 H   0  0  0  0  0  0  0  0  0  0  0  0
    3.7320   -2.2750    0.0000 H   0  0  0  0  0  0  0  0  0  0  0  0
   11.1972    0.0350    0.0000 H   0  0  0  0  0  0  0  0  0  0  0  0
  1 20  1  0  0  0  0 
  2 11  2  0  0  0  0 
  3 17  1  0  0  0  0 
  3 32  1  0  0  0  0 
  4 17  2  0  0  0  0 
  5  8  1  0  0  0  0 
  5 26  1  0  0  0  0 
  5 27  1  0  0  0  0 
  6  8  1  0  0  0  0 
  6  9  1  0  0  0  0 
  6 10  2  0  0  0  0 
  7  8  2  0  0  0  0 
  7 11  1  0  0  0  0 
  7 12  1  0  0  0  0 
  9 17  1  0  0  0  0 
  9 21  1  0  0  0  0 
  9 22  1  0  0  0  0 
 10 14  1  0  0  0  0 
 10 23  1  0  0  0  0 
 11 13  1  0  0  0  0 
 12 14  2  0  0  0  0 
 12 24  1  0  0  0  0 
 13 15  2  0  0  0  0 
 13 16  1  0  0  0  0 
 14 25  1  0  0  0  0 
 15 18  1  0  0  0  0 
 15 28  1  0  0  0  0 
 16 19  2  0  0  0  0 
 16 29  1  0  0  0  0 
 18 20  2  0  0  0  0 
 18 30  1  0  0  0  0 
 19 20  1  0  0  0  0 
 19 31  1  0  0  0  0 
M  END
> <cdk:Title>
60726

> <cdk:Remark>
null

> <PUBCHEM_COMPOUND_CID>
60726

> <PUBCHEM_COMPOUND_CANONICALIZED>
1

> <PUBCHEM_CACTVS_COMPLEXITY>
366

> <PUBCHEM_CACTVS_HBOND_ACCEPTOR>
4

> <PUBCHEM_CACTVS_HBOND_DONOR>
2

> <PUBCHEM_CACTVS_ROTATABLE_BOND>
4

> <PUBCHEM_CACTVS_SUBSKEYS>
AAADccByMAAAEAAAAAAAAAAAAAAAAAAAAAAwYAAAAAAAAAABQAAAHgBQCAABrAyBmAAwyIBAAgCIAqTSSACCAAAkAAQIiAEAROgIIDqAlZGAYYBkwAEIy9e8yPCOAgACAAACAAAEAAQAAAQAAAAAAAAAAA==

> <PUBCHEM_IUPAC_OPENEYE_NAME>
2-[2-amino-3-(4-bromobenzoyl)phenyl]acetic acid

> <PUBCHEM_IUPAC_CAS_NAME>
2-[2-amino-3-[(4-bromophenyl)-oxomethyl]phenyl]acetic acid

> <PUBCHEM_IUPAC_NAME>
2-[2-amino-3-(4-bromobenzoyl)phenyl]acetic acid

> <PUBCHEM_IUPAC_SYSTEMATIC_NAME>
2-[2-azanyl-3-(4-bromophenyl)carbonyl-phenyl]ethanoic acid

> <PUBCHEM_IUPAC_TRADITIONAL_NAME>
2-[2-amino-3-(4-bromobenzoyl)phenyl]acetic acid

> <PUBCHEM_IUPAC_INCHI>
InChI=1S/C15H12BrNO3/c16-11-6-4-9(5-7-11)15(20)12-3-1-2-10(14(12)17)8-13(18)19/h1-7H,8,17H2,(H,18,19)

> <PUBCHEM_IUPAC_INCHIKEY>
ZBPLOVFIXSTCRZ-UHFFFAOYSA-N

> <PUBCHEM_XLOGP3_AA>
3.3

> <PUBCHEM_EXACT_MASS>
333.000055

> <PUBCHEM_MOLECULAR_FORMULA>
C15H12BrNO3

> <PUBCHEM_MOLECULAR_WEIGHT>
334.16468

> <PUBCHEM_OPENEYE_CAN_SMILES>
C1=CC(=C(C(=C1)CC(=O)O)N)C(=O)C2=CC=C(C=C2)Br

> <PUBCHEM_OPENEYE_ISO_SMILES>
C1=CC(=C(C(=C1)CC(=O)O)N)C(=O)C2=CC=C(C=C2)Br

> <PUBCHEM_CACTVS_TPSA>
80.4

> <PUBCHEM_MONOISOTOPIC_WEIGHT>
333.000055

> <PUBCHEM_TOTAL_CHARGE>
0

> <PUBCHEM_HEAVY_ATOM_COUNT>
20

> <PUBCHEM_ATOM_DEF_STEREO_COUNT>
0

> <PUBCHEM_ATOM_UDEF_STEREO_COUNT>
0

> <PUBCHEM_BOND_DEF_STEREO_COUNT>
0

> <PUBCHEM_BOND_UDEF_STEREO_COUNT>
0

> <PUBCHEM_ISOTOPIC_ATOM_COUNT>
0

> <PUBCHEM_COMPONENT_COUNT>
1

> <PUBCHEM_CACTVS_TAUTO_COUNT>
21

> <PUBCHEM_COORDINATE_TYPE>
1
5
255

> <PUBCHEM_BONDANNOTATIONS>
10  14  8
12  14  8
13  15  8
13  16  8
15  18  8
16  19  8
18  20  8
19  20  8
6  10  8
6  8  8
7  12  8
7  8  8

> <DRUG_ID>
w174

> <DRUG_NAME>
Bromfenac

$$$$
10007
  CDK     0927151942
null
 26 26  0  0  0  0  0  0  0  0999 V2000
    2.8660   -2.8100    0.0000 Cl  0  0  0  0  0  0  0  0  0  0  0  0
    4.5981    2.1900    0.0000 N   0  0  0  0  0  0  0  0  0  0  0  0
    3.7320    1.6900    0.0000 C   0  0  0  0  0  0  0  0  0  0  0  0
    2.8660    1.1900    0.0000 C   0  0  0  0  0  0  0  0  0  0  0  0
    3.2320    2.5560    0.0000 C   0  0  0  0  0  0  0  0  0  0  0  0
    4.2320    0.8240    0.0000 C   0  0  0  0  0  0  0  0  0  0  0  0
    2.8660    0.1900    0.0000 C   0  0  0  0  0  0  0  0  0  0  0  0
    3.7320   -0.3100    0.0000 C   0  0  0  0  0  0  0  0  0  0  0  0
    2.0000   -0.3100    0.0000 C   0  0  0  0  0  0  0  0  0  0  0  0
    3.7320   -1.3100    0.0000 C   0  0  0  0  0  0  0  0  0  0  0  0
    2.0000   -1.3100    0.0000 C   0  0  0  0  0  0  0  0  0  0  0  0
    2.8660   -1.8100    0.0000 C   0  0  0  0  0  0  0  0  0  0  0  0
    2.6540    1.7726    0.0000 H   0  0  0  0  0  0  0  0  0  0  0  0
    2.2554    1.0823    0.0000 H   0  0  0  0  0  0  0  0  0  0  0  0
    3.7690    2.8660    0.0000 H   0  0  0  0  0  0  0  0  0  0  0  0
    2.9220    3.0930    0.0000 H   0  0  0  0  0  0  0  0  0  0  0  0
    2.6951    2.2460    0.0000 H   0  0  0  0  0  0  0  0  0  0  0  0
    3.6951    0.5140    0.0000 H   0  0  0  0  0  0  0  0  0  0  0  0
    4.5420    0.2870    0.0000 H   0  0  0  0  0  0  0  0  0  0  0  0
    4.7690    1.1340    0.0000 H   0  0  0  0  0  0  0  0  0  0  0  0
    4.5981    2.8100    0.0000 H   0  0  0  0  0  0  0  0  0  0  0  0
    5.1350    1.8800    0.0000 H   0  0  0  0  0  0  0  0  0  0  0  0
    4.2690    0.0000    0.0000 H   0  0  0  0  0  0  0  0  0  0  0  0
    1.4631    0.0000    0.0000 H   0  0  0  0  0  0  0  0  0  0  0  0
    4.2690   -1.6200    0.0000 H   0  0  0  0  0  0  0  0  0  0  0  0
    1.4631   -1.6200    0.0000 H   0  0  0  0  0  0  0  0  0  0  0  0
  1 12  1  0  0  0  0 
  2  3  1  0  0  0  0 
  2 21  1  0  0  0  0 
  2 22  1  0  0  0  0 
  3  4  1  0  0  0  0 
  3  5  1  0  0  0  0 
  3  6  1  0  0  0  0 
  4  7  1  0  0  0  0 
  4 13  1  0  0  0  0 
  4 14  1  0  0  0  0 
  5 15  1  0  0  0  0 
  5 16  1  0  0  0  0 
  5 17  1  0  0  0  0 
  6 18  1  0  0  0  0 
  6 19  1  0  0  0  0 
  6 20  1  0  0  0  0 
  7  8  2  0  0  0  0 
  7  9  1  0  0  0  0 
  8 10  1  0  0  0  0 
  8 23  1  0  0  0  0 
  9 11  2  0  0  0  0 
  9 24  1  0  0  0  0 
 10 12  2  0  0  0  0 
 10 25  1  0  0  0  0 
 11 12  1  0  0  0  0 
 11 26  1  0  0  0  0 
M  END
> <cdk:Title>
10007

> <cdk:Remark>
null

> <PUBCHEM_COMPOUND_CID>
10007

> <PUBCHEM_COMPOUND_CANONICALIZED>
1

> <PUBCHEM_CACTVS_COMPLEXITY>
137

> <PUBCHEM_CACTVS_HBOND_ACCEPTOR>
1

> <PUBCHEM_CACTVS_HBOND_DONOR>
1

> <PUBCHEM_CACTVS_ROTATABLE_BOND>
2

> <PUBCHEM_CACTVS_SUBSKEYS>
AAADccByAAAEAAAAAAAAAAAAAAAAAAAAAAAwAAAAAAAAAAABAAAAHAIQAAAADIqBGCAyAIBAAACAAiBCAAACAAAgBQAIiAAAAogIICKBkxGAIAAgkAAIiAcQgMAOBAAAAAAAAAAIAAAAAAAAAAAAAAAAAA==

> <PUBCHEM_IUPAC_OPENEYE_NAME>
1-(4-chlorophenyl)-2-methyl-propan-2-amine

> <PUBCHEM_IUPAC_CAS_NAME>
1-(4-chlorophenyl)-2-methyl-2-propanamine

> <PUBCHEM_IUPAC_NAME>
1-(4-chlorophenyl)-2-methylpropan-2-amine

> <PUBCHEM_IUPAC_SYSTEMATIC_NAME>
1-(4-chlorophenyl)-2-methyl-propan-2-amine

> <PUBCHEM_IUPAC_TRADITIONAL_NAME>
[2-(4-chlorophenyl)-1,1-dimethyl-ethyl]amine

> <PUBCHEM_IUPAC_INCHI>
InChI=1S/C10H14ClN/c1-10(2,12)7-8-3-5-9(11)6-4-8/h3-6H,7,12H2,1-2H3

> <PUBCHEM_IUPAC_INCHIKEY>
ZCKAMNXUHHNZLN-UHFFFAOYSA-N

> <PUBCHEM_XLOGP3>
2.6

> <PUBCHEM_EXACT_MASS>
183.081477

> <PUBCHEM_MOLECULAR_FORMULA>
C10H14ClN

> <PUBCHEM_MOLECULAR_WEIGHT>
183.67786

> <PUBCHEM_OPENEYE_CAN_SMILES>
CC(C)(CC1=CC=C(C=C1)Cl)N

> <PUBCHEM_OPENEYE_ISO_SMILES>
CC(C)(CC1=CC=C(C=C1)Cl)N

> <PUBCHEM_CACTVS_TPSA>
26

> <PUBCHEM_MONOISOTOPIC_WEIGHT>
183.081477

> <PUBCHEM_TOTAL_CHARGE>
0

> <PUBCHEM_HEAVY_ATOM_COUNT>
12

> <PUBCHEM_ATOM_DEF_STEREO_COUNT>
0

> <PUBCHEM_ATOM_UDEF_STEREO_COUNT>
0

> <PUBCHEM_BOND_DEF_STEREO_COUNT>
0

> <PUBCHEM_BOND_UDEF_STEREO_COUNT>
0

> <PUBCHEM_ISOTOPIC_ATOM_COUNT>
0

> <PUBCHEM_COMPONENT_COUNT>
1

> <PUBCHEM_CACTVS_TAUTO_COUNT>
2

> <PUBCHEM_COORDINATE_TYPE>
1
5
255

> <PUBCHEM_BONDANNOTATIONS>
10  12  8
11  12  8
7  8  8
7  9  8
8  10  8
9  11  8

> <DRUG_ID>
w175

> <DRUG_NAME>
Chlorphentermine

$$$$
65869
  CDK     0927151942
null
 43 44  0  0  0  0  0  0  0  0999 V2000
    3.0000   -6.2280    0.0000 Br  0  0  0  0  0  0  0  0  0  0  0  0
    3.0000   -2.2280    0.0000 S   0  0  0  0  0  0  0  0  0  0  0  0
    5.5981    2.2720    0.0000 S   0  0  0  0  0  0  0  0  0  0  0  0
    7.5468    4.9744    0.0000 S   0  0  0  0  0  0  0  0  0  0  0  0
    4.0000   -2.2280    0.0000 O   0  0  0  0  0  0  0  0  0  0  0  0
    2.0000   -2.2280    0.0000 O   0  0  0  0  0  0  0  0  0  0  0  0
    3.0000   -1.2280    0.0000 N   0  0  0  0  0  0  0  0  0  0  0  0
    3.8660    0.2720    0.0000 N   0  0  0  0  0  0  0  0  0  0  0  0
    7.3776    3.3652    0.0000 N   0  0  0  0  0  0  0  0  0  0  0  0
    9.0413    4.0039    0.0000 N   0  0  0  0  0  0  0  0  0  0  0  0
   10.6236    4.7084    0.0000 N   0  0  0  0  0  0  0  0  0  0  0  0
    9.2224    5.7264    0.0000 N   0  0  0  0  0  0  0  0  0  0  0  0
    3.0000   -3.2280    0.0000 C   0  0  0  0  0  0  0  0  0  0  0  0
    4.7320    1.7720    0.0000 C   0  0  0  0  0  0  0  0  0  0  0  0
    4.7320    0.7720    0.0000 C   0  0  0  0  0  0  0  0  0  0  0  0
    2.1340   -3.7280    0.0000 C   0  0  0  0  0  0  0  0  0  0  0  0
    3.8660   -3.7280    0.0000 C   0  0  0  0  0  0  0  0  0  0  0  0
    5.5981    3.2720    0.0000 C   0  0  0  0  0  0  0  0  0  0  0  0
    6.4641    3.7720    0.0000 C   0  0  0  0  0  0  0  0  0  0  0  0
    2.1340   -4.7280    0.0000 C   0  0  0  0  0  0  0  0  0  0  0  0
    3.8660   -4.7280    0.0000 C   0  0  0  0  0  0  0  0  0  0  0  0
    3.8660   -0.7280    0.0000 C   0  0  0  0  0  0  0  0  0  0  0  0
    3.0000   -5.2280    0.0000 C   0  0  0  0  0  0  0  0  0  0  0  0
    6.5686    4.7665    0.0000 C   0  0  0  0  0  0  0  0  0  0  0  0
    8.0468    4.1084    0.0000 C   0  0  0  0  0  0  0  0  0  0  0  0
    9.6291    4.8129    0.0000 C   0  0  0  0  0  0  0  0  0  0  0  0
    4.5200    2.3546    0.0000 H   0  0  0  0  0  0  0  0  0  0  0  0
    4.1215    1.6643    0.0000 H   0  0  0  0  0  0  0  0  0  0  0  0
    4.9441    0.1894    0.0000 H   0  0  0  0  0  0  0  0  0  0  0  0
    5.3426    0.8796    0.0000 H   0  0  0  0  0  0  0  0  0  0  0  0
    2.4631   -0.9180    0.0000 H   0  0  0  0  0  0  0  0  0  0  0  0
    1.5970   -3.4180    0.0000 H   0  0  0  0  0  0  0  0  0  0  0  0
    4.4030   -3.4180    0.0000 H   0  0  0  0  0  0  0  0  0  0  0  0
    5.3860    3.8546    0.0000 H   0  0  0  0  0  0  0  0  0  0  0  0
    4.9875    3.1643    0.0000 H   0  0  0  0  0  0  0  0  0  0  0  0
    1.5970   -5.0380    0.0000 H   0  0  0  0  0  0  0  0  0  0  0  0
    4.4030   -5.0380    0.0000 H   0  0  0  0  0  0  0  0  0  0  0  0
    4.4030   -1.0380    0.0000 H   0  0  0  0  0  0  0  0  0  0  0  0
    6.1079    5.1814    0.0000 H   0  0  0  0  0  0  0  0  0  0  0  0
    9.5868    6.2280    0.0000 H   0  0  0  0  0  0  0  0  0  0  0  0
    8.6057    5.7912    0.0000 H   0  0  0  0  0  0  0  0  0  0  0  0
   10.9880    5.2099    0.0000 H   0  0  0  0  0  0  0  0  0  0  0  0
   10.8758    4.1419    0.0000 H   0  0  0  0  0  0  0  0  0  0  0  0
  1 23  1  0  0  0  0 
  2  5  2  0  0  0  0 
  2  6  2  0  0  0  0 
  2  7  1  0  0  0  0 
  2 13  1  0  0  0  0 
  3 14  1  0  0  0  0 
  3 18  1  0  0  0  0 
  4 24  1  0  0  0  0 
  4 25  1  0  0  0  0 
  7 22  1  0  0  0  0 
  7 31  1  0  0  0  0 
  8 15  1  0  0  0  0 
  8 22  2  0  0  0  0 
  9 19  1  0  0  0  0 
  9 25  2  0  0  0  0 
 10 25  1  0  0  0  0 
 10 26  2  0  0  0  0 
 11 26  1  0  0  0  0 
 11 42  1  0  0  0  0 
 11 43  1  0  0  0  0 
 12 26  1  0  0  0  0 
 12 40  1  0  0  0  0 
 12 41  1  0  0  0  0 
 13 16  2  0  0  0  0 
 13 17  1  0  0  0  0 
 14 15  1  0  0  0  0 
 14 27  1  0  0  0  0 
 14 28  1  0  0  0  0 
 15 29  1  0  0  0  0 
 15 30  1  0  0  0  0 
 16 20  1  0  0  0  0 
 16 32  1  0  0  0  0 
 17 21  2  0  0  0  0 
 17 33  1  0  0  0  0 
 18 19  1  0  0  0  0 
 18 34  1  0  0  0  0 
 18 35  1  0  0  0  0 
 19 24  2  0  0  0  0 
 20 23  2  0  0  0  0 
 20 36  1  0  0  0  0 
 21 23  1  0  0  0  0 
 21 37  1  0  0  0  0 
 22 38  1  0  0  0  0 
 24 39  1  0  0  0  0 
M  END
> <cdk:Title>
65869

> <cdk:Remark>
null

> <PUBCHEM_COMPOUND_CID>
65869

> <PUBCHEM_COMPOUND_CANONICALIZED>
1

> <PUBCHEM_CACTVS_COMPLEXITY>
586

> <PUBCHEM_CACTVS_HBOND_ACCEPTOR>
7

> <PUBCHEM_CACTVS_HBOND_DONOR>
3

> <PUBCHEM_CACTVS_ROTATABLE_BOND>
9

> <PUBCHEM_CACTVS_SUBSKEYS>
AAADceBzsABgEAAAAAAAAAAAAAAAAWAAAAAwAAAAAAAAAAABwAAAHARQQAABqAjFVgSxkZJIEAqkASRjZHBC8LlhCjwIiJwQIKiIICKgERCAIAAggAIoijcAAAAAAAEAAAAAAAAAAgAAAAAAAAAAAAAAAA==

> <PUBCHEM_IUPAC_OPENEYE_NAME>
N-(4-bromophenyl)sulfonyl-N'-[2-[(2-guanidinothiazol-4-yl)methylsulfanyl]ethyl]formamidine

> <PUBCHEM_IUPAC_CAS_NAME>
N-(4-bromophenyl)sulfonyl-N'-[2-[[2-(diaminomethylideneamino)-4-thiazolyl]methylthio]ethyl]methanimidamide

> <PUBCHEM_IUPAC_NAME>
N-(4-bromophenyl)sulfonyl-N'-[2-[[2-(diaminomethylideneamino)-1,3-thiazol-4-yl]methylsulfanyl]ethyl]methanimidamide

> <PUBCHEM_IUPAC_SYSTEMATIC_NAME>
N'-[2-[[2-[bis(azanyl)methylideneamino]-1,3-thiazol-4-yl]methylsulfanyl]ethyl]-N-(4-bromophenyl)sulfonyl-methanimidamide

> <PUBCHEM_IUPAC_TRADITIONAL_NAME>
N-brosyl-N'-[2-[(2-guanidinothiazol-4-yl)methylthio]ethyl]formamidine

> <PUBCHEM_IUPAC_INCHI>
InChI=1S/C14H17BrN6O2S3/c15-10-1-3-12(4-2-10)26(22,23)19-9-18-5-6-24-7-11-8-25-14(20-11)21-13(16)17/h1-4,8-9H,5-7H2,(H,18,19)(H4,16,17,20,21)

> <PUBCHEM_IUPAC_INCHIKEY>
ZQHFZHPUZXNPMF-UHFFFAOYSA-N

> <PUBCHEM_XLOGP3_AA>
1.5

> <PUBCHEM_EXACT_MASS>
475.975849

> <PUBCHEM_MOLECULAR_FORMULA>
C14H17BrN6O2S3

> <PUBCHEM_MOLECULAR_WEIGHT>
477.42278

> <PUBCHEM_OPENEYE_CAN_SMILES>
C1=CC(=CC=C1S(=O)(=O)NC=NCCSCC2=CSC(=N2)N=C(N)N)Br

> <PUBCHEM_OPENEYE_ISO_SMILES>
C1=CC(=CC=C1S(=O)(=O)NC=NCCSCC2=CSC(=N2)N=C(N)N)Br

> <PUBCHEM_CACTVS_TPSA>
198

> <PUBCHEM_MONOISOTOPIC_WEIGHT>
475.975849

> <PUBCHEM_TOTAL_CHARGE>
0

> <PUBCHEM_HEAVY_ATOM_COUNT>
26

> <PUBCHEM_ATOM_DEF_STEREO_COUNT>
0

> <PUBCHEM_ATOM_UDEF_STEREO_COUNT>
0

> <PUBCHEM_BOND_DEF_STEREO_COUNT>
0

> <PUBCHEM_BOND_UDEF_STEREO_COUNT>
0

> <PUBCHEM_ISOTOPIC_ATOM_COUNT>
0

> <PUBCHEM_COMPONENT_COUNT>
1

> <PUBCHEM_CACTVS_TAUTO_COUNT>
6

> <PUBCHEM_COORDINATE_TYPE>
1
5
255

> <PUBCHEM_BONDANNOTATIONS>
13  16  8
13  17  8
16  20  8
17  21  8
19  24  8
20  23  8
21  23  8
4  24  8
4  25  8
9  19  8
9  25  8

> <DRUG_ID>
w176

> <DRUG_NAME>
Ebrotidine

$$$$
5478933
  CDK     0927151942
null
 69 71  0  0  0  0  0  0  0  0999 V2000
    8.0000   -2.7439    0.0000 O   0  0  0  0  0  0  0  0  0  0  0  0
    8.4909   -0.9120    0.0000 O   0  0  0  0  0  0  0  0  0  0  0  0
    3.5000   -5.3420    0.0000 O   0  0  0  0  0  0  0  0  0  0  0  0
    3.5000   -3.6100    0.0000 O   0  0  0  0  0  0  0  0  0  0  0  0
    6.7588    5.0880    0.0000 O   0  0  0  0  0  0  0  0  0  0  0  0
    6.5000   -1.8779    0.0000 N   0  0  0  0  0  0  0  0  0  0  0  0
    5.5000   -3.6100    0.0000 N   0  0  0  0  0  0  0  0  0  0  0  0
    7.6248    0.5880    0.0000 N   0  0  0  0  0  0  0  0  0  0  0  0
    9.3569    5.5880    0.0000 N   0  0  0  0  0  0  0  0  0  0  0  0
    7.6248    5.5880    0.0000 N   0  0  0  0  0  0  0  0  0  0  0  0
    7.0000   -4.4760    0.0000 C   0  0  0  0  0  0  0  0  0  0  0  0
    6.5000   -3.6100    0.0000 C   0  0  2  0  0  0  0  0  0  0  0  0
    6.5000   -5.3420    0.0000 C   0  0  0  0  0  0  0  0  0  0  0  0
    8.0000   -4.4760    0.0000 C   0  0  0  0  0  0  0  0  0  0  0  0
    7.0000   -6.2080    0.0000 C   0  0  0  0  0  0  0  0  0  0  0  0
    8.5000   -5.3420    0.0000 C   0  0  0  0  0  0  0  0  0  0  0  0
    6.7588   -0.9120    0.0000 C   0  0  1  0  0  0  0  0  0  0  0  0
    8.0000   -6.2080    0.0000 C   0  0  0  0  0  0  0  0  0  0  0  0
    5.5341   -1.6191    0.0000 C   0  0  0  0  0  0  0  0  0  0  0  0
    5.7929   -0.6532    0.0000 C   0  0  0  0  0  0  0  0  0  0  0  0
    7.0000   -2.7439    0.0000 C   0  0  0  0  0  0  0  0  0  0  0  0
    7.6248   -0.4120    0.0000 C   0  0  0  0  0  0  0  0  0  0  0  0
    5.0000   -4.4760    0.0000 C   0  0  0  0  0  0  0  0  0  0  0  0
    4.0000   -4.4760    0.0000 C   0  0  0  0  0  0  0  0  0  0  0  0
    8.4909    1.0880    0.0000 C   0  0  0  0  0  0  0  0  0  0  0  0
    8.4909    2.0880    0.0000 C   0  0  0  0  0  0  0  0  0  0  0  0
    9.3569    2.5880    0.0000 C   0  0  0  0  0  0  0  0  0  0  0  0
    7.6248    2.5880    0.0000 C   0  0  0  0  0  0  0  0  0  0  0  0
    2.5000   -5.3420    0.0000 C   0  0  0  0  0  0  0  0  0  0  0  0
    9.3569    3.5880    0.0000 C   0  0  0  0  0  0  0  0  0  0  0  0
    7.6248    3.5880    0.0000 C   0  0  0  0  0  0  0  0  0  0  0  0
    8.4909    4.0880    0.0000 C   0  0  0  0  0  0  0  0  0  0  0  0
    2.0000   -6.2080    0.0000 C   0  0  0  0  0  0  0  0  0  0  0  0
    8.4909    5.0880    0.0000 C   0  0  0  0  0  0  0  0  0  0  0  0
    7.3100   -3.9390    0.0000 H   0  0  0  0  0  0  0  0  0  0  0  0
    6.1900   -4.1469    0.0000 H   0  0  0  0  0  0  0  0  0  0  0  0
    6.0250   -4.9435    0.0000 H   0  0  0  0  0  0  0  0  0  0  0  0
    6.0250   -5.7405    0.0000 H   0  0  0  0  0  0  0  0  0  0  0  0
    8.5826   -4.2639    0.0000 H   0  0  0  0  0  0  0  0  0  0  0  0
    7.8923   -3.8654    0.0000 H   0  0  0  0  0  0  0  0  0  0  0  0
    7.2507   -1.2894    0.0000 H   0  0  0  0  0  0  0  0  0  0  0  0
    8.9750   -5.7405    0.0000 H   0  0  0  0  0  0  0  0  0  0  0  0
    8.9750   -4.9435    0.0000 H   0  0  0  0  0  0  0  0  0  0  0  0
    6.4174   -6.4201    0.0000 H   0  0  0  0  0  0  0  0  0  0  0  0
    7.1077   -6.8186    0.0000 H   0  0  0  0  0  0  0  0  0  0  0  0
    7.8923   -6.8186    0.0000 H   0  0  0  0  0  0  0  0  0  0  0  0
    8.5826   -6.4201    0.0000 H   0  0  0  0  0  0  0  0  0  0  0  0
    4.9352   -1.4586    0.0000 H   0  0  0  0  0  0  0  0  0  0  0  0
    5.3736   -2.2180    0.0000 H   0  0  0  0  0  0  0  0  0  0  0  0
    5.9534   -0.0543    0.0000 H   0  0  0  0  0  0  0  0  0  0  0  0
    5.1940   -0.4927    0.0000 H   0  0  0  0  0  0  0  0  0  0  0  0
    5.1900   -3.0730    0.0000 H   0  0  0  0  0  0  0  0  0  0  0  0
    4.8923   -5.0866    0.0000 H   0  0  0  0  0  0  0  0  0  0  0  0
    5.5826   -4.6880    0.0000 H   0  0  0  0  0  0  0  0  0  0  0  0
    7.0879    0.8980    0.0000 H   0  0  0  0  0  0  0  0  0  0  0  0
    8.7029    0.5054    0.0000 H   0  0  0  0  0  0  0  0  0  0  0  0
    9.1014    1.1957    0.0000 H   0  0  0  0  0  0  0  0  0  0  0  0
    9.8938    2.2780    0.0000 H   0  0  0  0  0  0  0  0  0  0  0  0
    7.0879    2.2780    0.0000 H   0  0  0  0  0  0  0  0  0  0  0  0
    2.6077   -4.7314    0.0000 H   0  0  0  0  0  0  0  0  0  0  0  0
    1.9174   -5.1300    0.0000 H   0  0  0  0  0  0  0  0  0  0  0  0
    9.8938    3.8980    0.0000 H   0  0  0  0  0  0  0  0  0  0  0  0
    7.0879    3.8980    0.0000 H   0  0  0  0  0  0  0  0  0  0  0  0
    1.4631   -5.8980    0.0000 H   0  0  0  0  0  0  0  0  0  0  0  0
    1.6900   -6.7450    0.0000 H   0  0  0  0  0  0  0  0  0  0  0  0
    2.5369   -6.5180    0.0000 H   0  0  0  0  0  0  0  0  0  0  0  0
    9.3569    6.2080    0.0000 H   0  0  0  0  0  0  0  0  0  0  0  0
    9.8938    5.2780    0.0000 H   0  0  0  0  0  0  0  0  0  0  0  0
    6.2219    5.3980    0.0000 H   0  0  0  0  0  0  0  0  0  0  0  0
  1 21  2  0  0  0  0 
  2 22  2  0  0  0  0 
  3 24  1  0  0  0  0 
  3 29  1  0  0  0  0 
  4 24  2  0  0  0  0 
  5 10  1  0  0  0  0 
  5 69  1  0  0  0  0 
  6 17  1  0  0  0  0 
  6 19  1  0  0  0  0 
  6 21  1  0  0  0  0 
 12  7  1  1  0  0  0 
  7 23  1  0  0  0  0 
  7 52  1  0  0  0  0 
  8 22  1  0  0  0  0 
  8 25  1  0  0  0  0 
  8 55  1  0  0  0  0 
  9 34  1  0  0  0  0 
  9 67  1  0  0  0  0 
  9 68  1  0  0  0  0 
 10 34  2  0  0  0  0 
 11 12  1  0  0  0  0 
 11 13  1  0  0  0  0 
 11 14  1  0  0  0  0 
 11 35  1  0  0  0  0 
 12 21  1  0  0  0  0 
 12 36  1  0  0  0  0 
 13 15  1  0  0  0  0 
 13 37  1  0  0  0  0 
 13 38  1  0  0  0  0 
 14 16  1  0  0  0  0 
 14 39  1  0  0  0  0 
 14 40  1  0  0  0  0 
 15 18  1  0  0  0  0 
 15 44  1  0  0  0  0 
 15 45  1  0  0  0  0 
 16 18  1  0  0  0  0 
 16 42  1  0  0  0  0 
 16 43  1  0  0  0  0 
 17 20  1  0  0  0  0 
 17 22  1  1  0  0  0 
 17 41  1  0  0  0  0 
 18 46  1  0  0  0  0 
 18 47  1  0  0  0  0 
 19 20  1  0  0  0  0 
 19 48  1  0  0  0  0 
 19 49  1  0  0  0  0 
 20 50  1  0  0  0  0 
 20 51  1  0  0  0  0 
 23 24  1  0  0  0  0 
 23 53  1  0  0  0  0 
 23 54  1  0  0  0  0 
 25 26  1  0  0  0  0 
 25 56  1  0  0  0  0 
 25 57  1  0  0  0  0 
 26 27  2  0  0  0  0 
 26 28  1  0  0  0  0 
 27 30  1  0  0  0  0 
 27 58  1  0  0  0  0 
 28 31  2  0  0  0  0 
 28 59  1  0  0  0  0 
 29 33  1  0  0  0  0 
 29 60  1  0  0  0  0 
 29 61  1  0  0  0  0 
 30 32  2  0  0  0  0 
 30 62  1  0  0  0  0 
 31 32  1  0  0  0  0 
 31 63  1  0  0  0  0 
 32 34  1  0  0  0  0 
 33 64  1  0  0  0  0 
 33 65  1  0  0  0  0 
 33 66  1  0  0  0  0 
M  END
> <cdk:Title>
5478933

> <cdk:Remark>
null

> <PUBCHEM_COMPOUND_CID>
5478933

> <PUBCHEM_COMPOUND_CANONICALIZED>
1

> <PUBCHEM_CACTVS_COMPLEXITY>
731

> <PUBCHEM_CACTVS_HBOND_ACCEPTOR>
7

> <PUBCHEM_CACTVS_HBOND_DONOR>
4

> <PUBCHEM_CACTVS_ROTATABLE_BOND>
11

> <PUBCHEM_CACTVS_SUBSKEYS>
AAADcfB7uAAAAAAAAAAAAAAAAABYAAAAAAAwYAAAAAAAAAABAAAAHgAUCAAADSjhmAYzCIPQBACoAiPyOACCAAAgAAAIiIGoBJgKYLKAkTGXIAhglgCYiAcciICOQAAAAAAAAACAAAAAAAAAAAAAAAAAAA==

> <PUBCHEM_IUPAC_OPENEYE_NAME>
ethyl 2-[[(1R)-1-cyclohexyl-2-[(2S)-2-[[4-[(E)-N'-hydroxycarbamimidoyl]phenyl]methylcarbamoyl]azetidin-1-yl]-2-oxo-ethyl]amino]acetate

> <PUBCHEM_IUPAC_CAS_NAME>
2-[[(1R)-2-[(2S)-2-[[[4-[(E)-amino(hydroxyimino)methyl]phenyl]methylamino]-oxomethyl]-1-azetidinyl]-1-cyclohexyl-2-oxoethyl]amino]acetic acid ethyl ester

> <PUBCHEM_IUPAC_NAME>
ethyl 2-[[(1R)-1-cyclohexyl-2-[(2S)-2-[[4-[(E)-N'-hydroxycarbamimidoyl]phenyl]methylcarbamoyl]azetidin-1-yl]-2-oxoethyl]amino]acetate

> <PUBCHEM_IUPAC_SYSTEMATIC_NAME>
ethyl 2-[[(1R)-1-cyclohexyl-2-[(2S)-2-[[4-[(E)-N'-oxidanylcarbamimidoyl]phenyl]methylcarbamoyl]azetidin-1-yl]-2-oxidanylidene-ethyl]amino]ethanoate

> <PUBCHEM_IUPAC_TRADITIONAL_NAME>
2-[[(1R)-2-[(2S)-2-[[4-[(E)-aminocarbohydroximoyl]benzyl]carbamoyl]azetidin-1-yl]-1-cyclohexyl-2-keto-ethyl]amino]acetic acid ethyl ester

> <PUBCHEM_IUPAC_INCHI>
InChI=1S/C24H35N5O5/c1-2-34-20(30)15-26-21(17-6-4-3-5-7-17)24(32)29-13-12-19(29)23(31)27-14-16-8-10-18(11-9-16)22(25)28-33/h8-11,17,19,21,26,33H,2-7,12-15H2,1H3,(H2,25,28)(H,27,31)/t19-,21+/m0/s1

> <PUBCHEM_IUPAC_INCHIKEY>
ZXIBCJHYVWYIKI-PZJWPPBQSA-N

> <PUBCHEM_XLOGP3_AA>
2.2

> <PUBCHEM_EXACT_MASS>
473.263819

> <PUBCHEM_MOLECULAR_FORMULA>
C24H35N5O5

> <PUBCHEM_MOLECULAR_WEIGHT>
473.5652

> <PUBCHEM_OPENEYE_CAN_SMILES>
CCOC(=O)CNC(C1CCCCC1)C(=O)N2CCC2C(=O)NCC3=CC=C(C=C3)C(=NO)N

> <PUBCHEM_OPENEYE_ISO_SMILES>
CCOC(=O)CN[C@H](C1CCCCC1)C(=O)N2CC[C@H]2C(=O)NCC3=CC=C(C=C3)/C(=N\O)/N

> <PUBCHEM_CACTVS_TPSA>
146

> <PUBCHEM_MONOISOTOPIC_WEIGHT>
473.263819

> <PUBCHEM_TOTAL_CHARGE>
0

> <PUBCHEM_HEAVY_ATOM_COUNT>
34

> <PUBCHEM_ATOM_DEF_STEREO_COUNT>
2

> <PUBCHEM_ATOM_UDEF_STEREO_COUNT>
0

> <PUBCHEM_BOND_DEF_STEREO_COUNT>
1

> <PUBCHEM_BOND_UDEF_STEREO_COUNT>
0

> <PUBCHEM_ISOTOPIC_ATOM_COUNT>
0

> <PUBCHEM_COMPONENT_COUNT>
1

> <PUBCHEM_CACTVS_TAUTO_COUNT>
6

> <PUBCHEM_COORDINATE_TYPE>
1
5
255

> <PUBCHEM_BONDANNOTATIONS>
17  22  5
26  27  8
26  28  8
27  30  8
28  31  8
30  32  8
31  32  8
12  7  5

> <DRUG_ID>
w178

> <DRUG_NAME>
Ximelagatran

$$$$
5733
  CDK     0927151942
null
 34 35  0  0  0  0  0  0  0  0999 V2000
    2.8660   -3.8494    0.0000 Cl  0  0  0  0  0  0  0  0  0  0  0  0
    2.0000    0.6506    0.0000 O   0  0  0  0  0  0  0  0  0  0  0  0
    6.6227    3.7846    0.0000 O   0  0  0  0  0  0  0  0  0  0  0  0
    6.8038    2.0621    0.0000 O   0  0  0  0  0  0  0  0  0  0  0  0
    3.8366    1.6451    0.0000 N   0  0  0  0  0  0  0  0  0  0  0  0
    3.7320    0.6506    0.0000 C   0  0  0  0  0  0  0  0  0  0  0  0
    4.8147    1.8530    0.0000 C   0  0  0  0  0  0  0  0  0  0  0  0
    4.6456    0.2438    0.0000 C   0  0  0  0  0  0  0  0  0  0  0  0
    5.3147    0.9870    0.0000 C   0  0  0  0  0  0  0  0  0  0  0  0
    5.2215    2.7666    0.0000 C   0  0  0  0  0  0  0  0  0  0  0  0
    2.8660    0.1506    0.0000 C   0  0  0  0  0  0  0  0  0  0  0  0
    3.0934    2.3142    0.0000 C   0  0  0  0  0  0  0  0  0  0  0  0
    4.8535   -0.7343    0.0000 C   0  0  0  0  0  0  0  0  0  0  0  0
    2.8660   -0.8494    0.0000 C   0  0  0  0  0  0  0  0  0  0  0  0
    6.2160    2.8711    0.0000 C   0  0  0  0  0  0  0  0  0  0  0  0
    2.0000   -1.3494    0.0000 C   0  0  0  0  0  0  0  0  0  0  0  0
    3.7320   -1.3494    0.0000 C   0  0  0  0  0  0  0  0  0  0  0  0
    2.0000   -2.3494    0.0000 C   0  0  0  0  0  0  0  0  0  0  0  0
    3.7320   -2.3494    0.0000 C   0  0  0  0  0  0  0  0  0  0  0  0
    2.8660   -2.8494    0.0000 C   0  0  0  0  0  0  0  0  0  0  0  0
    5.9313    0.9222    0.0000 H   0  0  0  0  0  0  0  0  0  0  0  0
    5.2647    3.3850    0.0000 H   0  0  0  0  0  0  0  0  0  0  0  0
    4.6199    2.9165    0.0000 H   0  0  0  0  0  0  0  0  0  0  0  0
    3.5083    2.7750    0.0000 H   0  0  0  0  0  0  0  0  0  0  0  0
    2.6327    2.7291    0.0000 H   0  0  0  0  0  0  0  0  0  0  0  0
    2.6786    1.8535    0.0000 H   0  0  0  0  0  0  0  0  0  0  0  0
    4.2471   -0.8632    0.0000 H   0  0  0  0  0  0  0  0  0  0  0  0
    4.9824   -1.3408    0.0000 H   0  0  0  0  0  0  0  0  0  0  0  0
    5.4600   -0.6054    0.0000 H   0  0  0  0  0  0  0  0  0  0  0  0
    1.4631   -1.0394    0.0000 H   0  0  0  0  0  0  0  0  0  0  0  0
    4.2690   -1.0394    0.0000 H   0  0  0  0  0  0  0  0  0  0  0  0
    1.4631   -2.6594    0.0000 H   0  0  0  0  0  0  0  0  0  0  0  0
    4.2690   -2.6594    0.0000 H   0  0  0  0  0  0  0  0  0  0  0  0
    7.2393    3.8494    0.0000 H   0  0  0  0  0  0  0  0  0  0  0  0
  1 20  1  0  0  0  0 
  2 11  2  0  0  0  0 
  3 15  1  0  0  0  0 
  3 34  1  0  0  0  0 
  4 15  2  0  0  0  0 
  5  6  1  0  0  0  0 
  5  7  1  0  0  0  0 
  5 12  1  0  0  0  0 
  6  8  2  0  0  0  0 
  6 11  1  0  0  0  0 
  7  9  2  0  0  0  0 
  7 10  1  0  0  0  0 
  8  9  1  0  0  0  0 
  8 13  1  0  0  0  0 
  9 21  1  0  0  0  0 
 10 15  1  0  0  0  0 
 10 22  1  0  0  0  0 
 10 23  1  0  0  0  0 
 11 14  1  0  0  0  0 
 12 24  1  0  0  0  0 
 12 25  1  0  0  0  0 
 12 26  1  0  0  0  0 
 13 27  1  0  0  0  0 
 13 28  1  0  0  0  0 
 13 29  1  0  0  0  0 
 14 16  2  0  0  0  0 
 14 17  1  0  0  0  0 
 16 18  1  0  0  0  0 
 16 30  1  0  0  0  0 
 17 19  2  0  0  0  0 
 17 31  1  0  0  0  0 
 18 20  2  0  0  0  0 
 18 32  1  0  0  0  0 
 19 20  1  0  0  0  0 
 19 33  1  0  0  0  0 
M  END
> <cdk:Title>
5733

> <cdk:Remark>
null

> <PUBCHEM_COMPOUND_CID>
5733

> <PUBCHEM_COMPOUND_CANONICALIZED>
1

> <PUBCHEM_CACTVS_COMPLEXITY>
379

> <PUBCHEM_CACTVS_HBOND_ACCEPTOR>
3

> <PUBCHEM_CACTVS_HBOND_DONOR>
1

> <PUBCHEM_CACTVS_ROTATABLE_BOND>
4

> <PUBCHEM_CACTVS_SUBSKEYS>
AAADccByMAAEAAAAAAAAAAAAAAAAAWAAAAAwAAAAAAAAAAABwAAAHgIACAAADA6BniQyiJMMEgCoA6TyTACCgCAnByAI2CG4ZtgIIPrBl7GEYQhmwAHIyYeYyfCeBAAAAAAAAAAIAAAAAAAAAAAAAAAAAA==

> <PUBCHEM_IUPAC_OPENEYE_NAME>
2-[5-(4-chlorobenzoyl)-1,4-dimethyl-pyrrol-2-yl]acetic acid

> <PUBCHEM_IUPAC_CAS_NAME>
2-[5-[(4-chlorophenyl)-oxomethyl]-1,4-dimethyl-2-pyrrolyl]acetic acid

> <PUBCHEM_IUPAC_NAME>
2-[5-(4-chlorobenzoyl)-1,4-dimethylpyrrol-2-yl]acetic acid

> <PUBCHEM_IUPAC_SYSTEMATIC_NAME>
2-[5-(4-chlorophenyl)carbonyl-1,4-dimethyl-pyrrol-2-yl]ethanoic acid

> <PUBCHEM_IUPAC_TRADITIONAL_NAME>
2-[5-(4-chlorobenzoyl)-1,4-dimethyl-pyrrol-2-yl]acetic acid

> <PUBCHEM_IUPAC_INCHI>
InChI=1S/C15H14ClNO3/c1-9-7-12(8-13(18)19)17(2)14(9)15(20)10-3-5-11(16)6-4-10/h3-7H,8H2,1-2H3,(H,18,19)

> <PUBCHEM_IUPAC_INCHIKEY>
ZXVNMYWKKDOREA-UHFFFAOYSA-N

> <PUBCHEM_XLOGP3_AA>
2.8

> <PUBCHEM_EXACT_MASS>
291.066221

> <PUBCHEM_MOLECULAR_FORMULA>
C15H14ClNO3

> <PUBCHEM_MOLECULAR_WEIGHT>
291.72956

> <PUBCHEM_OPENEYE_CAN_SMILES>
CC1=C(N(C(=C1)CC(=O)O)C)C(=O)C2=CC=C(C=C2)Cl

> <PUBCHEM_OPENEYE_ISO_SMILES>
CC1=C(N(C(=C1)CC(=O)O)C)C(=O)C2=CC=C(C=C2)Cl

> <PUBCHEM_CACTVS_TPSA>
59.3

> <PUBCHEM_MONOISOTOPIC_WEIGHT>
291.066221

> <PUBCHEM_TOTAL_CHARGE>
0

> <PUBCHEM_HEAVY_ATOM_COUNT>
20

> <PUBCHEM_ATOM_DEF_STEREO_COUNT>
0

> <PUBCHEM_ATOM_UDEF_STEREO_COUNT>
0

> <PUBCHEM_BOND_DEF_STEREO_COUNT>
0

> <PUBCHEM_BOND_UDEF_STEREO_COUNT>
0

> <PUBCHEM_ISOTOPIC_ATOM_COUNT>
0

> <PUBCHEM_COMPONENT_COUNT>
1

> <PUBCHEM_CACTVS_TAUTO_COUNT>
7

> <PUBCHEM_COORDINATE_TYPE>
1
5
255

> <PUBCHEM_BONDANNOTATIONS>
14  16  8
14  17  8
16  18  8
17  19  8
18  20  8
19  20  8
5  6  8
5  7  8
6  8  8
7  9  8
8  9  8

> <DRUG_ID>
w179

> <DRUG_NAME>
Zomepirac

$$$$
4641
  CDK     0927151942
null
 44 46  0  0  0  0  0  0  0  0999 V2000
    2.0000   -0.0582    0.0000 O   0  0  0  0  0  0  0  0  0  0  0  0
    4.8479    2.0109    0.0000 O   0  0  0  0  0  0  0  0  0  0  0  0
    3.7601   -4.3370    0.0000 O   0  0  0  0  0  0  0  0  0  0  0  0
    3.7601   -0.3370    0.0000 N   0  0  0  0  0  0  0  0  0  0  0  0
    4.5691    0.2508    0.0000 N   0  0  0  0  0  0  0  0  0  0  0  0
    3.2601    1.2019    0.0000 C   0  0  3  0  0  0  0  0  0  0  0  0
    2.6723    2.0109    0.0000 C   0  0  0  0  0  0  0  0  0  0  0  0
    2.9511    0.2508    0.0000 C   0  0  0  0  0  0  0  0  0  0  0  0
    4.2601    1.2019    0.0000 C   0  0  0  0  0  0  0  0  0  0  0  0
    3.0790    2.9244    0.0000 C   0  0  0  0  0  0  0  0  0  0  0  0
    2.4912    3.7334    0.0000 C   0  0  0  0  0  0  0  0  0  0  0  0
    3.7601   -1.3370    0.0000 C   0  0  0  0  0  0  0  0  0  0  0  0
    5.5202   -0.0582    0.0000 C   0  0  0  0  0  0  0  0  0  0  0  0
    2.8980    4.6470    0.0000 C   0  0  0  0  0  0  0  0  0  0  0  0
    2.8940   -1.8370    0.0000 C   0  0  0  0  0  0  0  0  0  0  0  0
    4.6261   -1.8370    0.0000 C   0  0  0  0  0  0  0  0  0  0  0  0
    5.7281   -1.0364    0.0000 C   0  0  0  0  0  0  0  0  0  0  0  0
    6.2633    0.6109    0.0000 C   0  0  0  0  0  0  0  0  0  0  0  0
    2.8940   -2.8370    0.0000 C   0  0  0  0  0  0  0  0  0  0  0  0
    4.6261   -2.8370    0.0000 C   0  0  0  0  0  0  0  0  0  0  0  0
    6.6791   -1.3454    0.0000 C   0  0  0  0  0  0  0  0  0  0  0  0
    7.2144    0.3019    0.0000 C   0  0  0  0  0  0  0  0  0  0  0  0
    3.7601   -3.3370    0.0000 C   0  0  0  0  0  0  0  0  0  0  0  0
    7.4223   -0.6762    0.0000 C   0  0  0  0  0  0  0  0  0  0  0  0
    2.6477    1.1049    0.0000 H   0  0  0  0  0  0  0  0  0  0  0  0
    2.1583    2.3576    0.0000 H   0  0  0  0  0  0  0  0  0  0  0  0
    2.2416    1.5649    0.0000 H   0  0  0  0  0  0  0  0  0  0  0  0
    3.5930    2.5777    0.0000 H   0  0  0  0  0  0  0  0  0  0  0  0
    3.5097    3.3704    0.0000 H   0  0  0  0  0  0  0  0  0  0  0  0
    1.9772    4.0801    0.0000 H   0  0  0  0  0  0  0  0  0  0  0  0
    2.0606    3.2874    0.0000 H   0  0  0  0  0  0  0  0  0  0  0  0
    3.4644    4.3948    0.0000 H   0  0  0  0  0  0  0  0  0  0  0  0
    3.1502    5.2134    0.0000 H   0  0  0  0  0  0  0  0  0  0  0  0
    2.3316    4.8992    0.0000 H   0  0  0  0  0  0  0  0  0  0  0  0
    2.3571   -1.5270    0.0000 H   0  0  0  0  0  0  0  0  0  0  0  0
    5.1630   -1.5270    0.0000 H   0  0  0  0  0  0  0  0  0  0  0  0
    5.2673   -1.4512    0.0000 H   0  0  0  0  0  0  0  0  0  0  0  0
    6.1344    1.2174    0.0000 H   0  0  0  0  0  0  0  0  0  0  0  0
    2.3571   -3.1470    0.0000 H   0  0  0  0  0  0  0  0  0  0  0  0
    5.1630   -3.1470    0.0000 H   0  0  0  0  0  0  0  0  0  0  0  0
    6.8080   -1.9518    0.0000 H   0  0  0  0  0  0  0  0  0  0  0  0
    7.6751    0.7168    0.0000 H   0  0  0  0  0  0  0  0  0  0  0  0
    8.0119   -0.8678    0.0000 H   0  0  0  0  0  0  0  0  0  0  0  0
    3.2231   -4.6470    0.0000 H   0  0  0  0  0  0  0  0  0  0  0  0
  1  8  2  0  0  0  0 
  2  9  2  0  0  0  0 
  3 23  1  0  0  0  0 
  3 44  1  0  0  0  0 
  4  5  1  0  0  0  0 
  4  8  1  0  0  0  0 
  4 12  1  0  0  0  0 
  5  9  1  0  0  0  0 
  5 13  1  0  0  0  0 
  6  7  1  0  0  0  0 
  6  8  1  0  0  0  0 
  6  9  1  0  0  0  0 
  6 25  1  0  0  0  0 
  7 10  1  0  0  0  0 
  7 26  1  0  0  0  0 
  7 27  1  0  0  0  0 
 10 11  1  0  0  0  0 
 10 28  1  0  0  0  0 
 10 29  1  0  0  0  0 
 11 14  1  0  0  0  0 
 11 30  1  0  0  0  0 
 11 31  1  0  0  0  0 
 12 15  2  0  0  0  0 
 12 16  1  0  0  0  0 
 13 17  2  0  0  0  0 
 13 18  1  0  0  0  0 
 14 32  1  0  0  0  0 
 14 33  1  0  0  0  0 
 14 34  1  0  0  0  0 
 15 19  1  0  0  0  0 
 15 35  1  0  0  0  0 
 16 20  2  0  0  0  0 
 16 36  1  0  0  0  0 
 17 21  1  0  0  0  0 
 17 37  1  0  0  0  0 
 18 22  2  0  0  0  0 
 18 38  1  0  0  0  0 
 19 23  2  0  0  0  0 
 19 39  1  0  0  0  0 
 20 23  1  0  0  0  0 
 20 40  1  0  0  0  0 
 21 24  2  0  0  0  0 
 21 41  1  0  0  0  0 
 22 24  1  0  0  0  0 
 22 42  1  0  0  0  0 
 24 43  1  0  0  0  0 
M  END
> <cdk:Title>
4641

> <cdk:Remark>
null

> <PUBCHEM_COMPOUND_CID>
4641

> <PUBCHEM_COMPOUND_CANONICALIZED>
1

> <PUBCHEM_CACTVS_COMPLEXITY>
454

> <PUBCHEM_CACTVS_HBOND_ACCEPTOR>
3

> <PUBCHEM_CACTVS_HBOND_DONOR>
1

> <PUBCHEM_CACTVS_ROTATABLE_BOND>
5

> <PUBCHEM_CACTVS_SUBSKEYS>
AAADceB7MAAAAAAAAAAAAAAAAAAAAWAAAAAwYAAAAAAAAAABQAAAHgAICAAADQyBkAAyxoIAAgCIACVSUACCBAAhIgAaiAEGbIgIJjrK0ZOEcAhkxBHI2Ae4SAAMAEAAAAAAAAAAgAAAAAAAAAAAAAAAAA==

> <PUBCHEM_IUPAC_OPENEYE_NAME>
4-butyl-1-(4-hydroxyphenyl)-2-phenyl-pyrazolidine-3,5-dione

> <PUBCHEM_IUPAC_CAS_NAME>
4-butyl-1-(4-hydroxyphenyl)-2-phenylpyrazolidine-3,5-dione

> <PUBCHEM_IUPAC_NAME>
4-butyl-1-(4-hydroxyphenyl)-2-phenylpyrazolidine-3,5-dione

> <PUBCHEM_IUPAC_SYSTEMATIC_NAME>
4-butyl-1-(4-hydroxyphenyl)-2-phenyl-pyrazolidine-3,5-dione

> <PUBCHEM_IUPAC_TRADITIONAL_NAME>
4-butyl-1-(4-hydroxyphenyl)-2-phenyl-pyrazolidine-3,5-quinone

> <PUBCHEM_IUPAC_INCHI>
InChI=1S/C19H20N2O3/c1-2-3-9-17-18(23)20(14-7-5-4-6-8-14)21(19(17)24)15-10-12-16(22)13-11-15/h4-8,10-13,17,22H,2-3,9H2,1H3

> <PUBCHEM_IUPAC_INCHIKEY>
HFHZKZSRXITVMK-UHFFFAOYSA-N

> <PUBCHEM_XLOGP3>
2.7

> <PUBCHEM_EXACT_MASS>
324.147393

> <PUBCHEM_MOLECULAR_FORMULA>
C19H20N2O3

> <PUBCHEM_MOLECULAR_WEIGHT>
324.3737

> <PUBCHEM_OPENEYE_CAN_SMILES>
CCCCC1C(=O)N(N(C1=O)C2=CC=C(C=C2)O)C3=CC=CC=C3

> <PUBCHEM_OPENEYE_ISO_SMILES>
CCCCC1C(=O)N(N(C1=O)C2=CC=C(C=C2)O)C3=CC=CC=C3

> <PUBCHEM_CACTVS_TPSA>
60.8

> <PUBCHEM_MONOISOTOPIC_WEIGHT>
324.147393

> <PUBCHEM_TOTAL_CHARGE>
0

> <PUBCHEM_HEAVY_ATOM_COUNT>
24

> <PUBCHEM_ATOM_DEF_STEREO_COUNT>
0

> <PUBCHEM_ATOM_UDEF_STEREO_COUNT>
1

> <PUBCHEM_BOND_DEF_STEREO_COUNT>
0

> <PUBCHEM_BOND_UDEF_STEREO_COUNT>
0

> <PUBCHEM_ISOTOPIC_ATOM_COUNT>
0

> <PUBCHEM_COMPONENT_COUNT>
1

> <PUBCHEM_CACTVS_TAUTO_COUNT>
6

> <PUBCHEM_COORDINATE_TYPE>
1
5
255

> <PUBCHEM_BONDANNOTATIONS>
12  15  8
12  16  8
13  17  8
13  18  8
15  19  8
16  20  8
17  21  8
18  22  8
19  23  8
20  23  8
21  24  8
22  24  8
6  7  3

> <DRUG_ID>
w18

> <DRUG_NAME>
Oxyphenbutazone

$$$$
323
  CDK     0927151942
null
 17 18  0  0  0  0  0  0  0  0999 V2000
    3.7320   -1.0000    0.0000 O   0  0  0  0  0  0  0  0  0  0  0  0
    2.0000   -1.0000    0.0000 O   0  0  0  0  0  0  0  0  0  0  0  0
    4.5981    0.5000    0.0000 C   0  0  0  0  0  0  0  0  0  0  0  0
    4.5981   -0.5000    0.0000 C   0  0  0  0  0  0  0  0  0  0  0  0
    5.4920    1.0347    0.0000 C   0  0  0  0  0  0  0  0  0  0  0  0
    3.7320    1.0000    0.0000 C   0  0  0  0  0  0  0  0  0  0  0  0
    5.4920   -1.0347    0.0000 C   0  0  0  0  0  0  0  0  0  0  0  0
    6.3981    0.5208    0.0000 C   0  0  0  0  0  0  0  0  0  0  0  0
    6.3981   -0.5208    0.0000 C   0  0  0  0  0  0  0  0  0  0  0  0
    2.8660    0.5000    0.0000 C   0  0  0  0  0  0  0  0  0  0  0  0
    2.8660   -0.5000    0.0000 C   0  0  0  0  0  0  0  0  0  0  0  0
    5.4848    1.6546    0.0000 H   0  0  0  0  0  0  0  0  0  0  0  0
    3.7320    1.6200    0.0000 H   0  0  0  0  0  0  0  0  0  0  0  0
    5.4848   -1.6546    0.0000 H   0  0  0  0  0  0  0  0  0  0  0  0
    6.9338    0.8329    0.0000 H   0  0  0  0  0  0  0  0  0  0  0  0
    6.9338   -0.8329    0.0000 H   0  0  0  0  0  0  0  0  0  0  0  0
    2.3291    0.8100    0.0000 H   0  0  0  0  0  0  0  0  0  0  0  0
  1  4  1  0  0  0  0 
  1 11  1  0  0  0  0 
  2 11  2  0  0  0  0 
  3  4  1  0  0  0  0 
  3  5  2  0  0  0  0 
  3  6  1  0  0  0  0 
  4  7  2  0  0  0  0 
  5  8  1  0  0  0  0 
  5 12  1  0  0  0  0 
  6 10  2  0  0  0  0 
  6 13  1  0  0  0  0 
  7  9  1  0  0  0  0 
  7 14  1  0  0  0  0 
  8  9  2  0  0  0  0 
  8 15  1  0  0  0  0 
  9 16  1  0  0  0  0 
 10 11  1  0  0  0  0 
 10 17  1  0  0  0  0 
M  END
> <cdk:Title>
323

> <cdk:Remark>
null

> <PUBCHEM_COMPOUND_CID>
323

> <PUBCHEM_COMPOUND_CANONICALIZED>
1

> <PUBCHEM_CACTVS_COMPLEXITY>
196

> <PUBCHEM_CACTVS_HBOND_ACCEPTOR>
2

> <PUBCHEM_CACTVS_HBOND_DONOR>
0

> <PUBCHEM_CACTVS_ROTATABLE_BOND>
0

> <PUBCHEM_CACTVS_SUBSKEYS>
AAADcYBwMAAAAAAAAAAAAAAAAAAAAAAAAAAwQAAAAAAAAACBAAAAGgAAAAAADASAmAAwDoAABACIAiDSCAACCAAgIAAIiAAGCMgMJiKEMRqCOiCkwBEIqYeAwCAOAAAAAAAIAAAAAAAAABAAAAAAAAAAAA==

> <PUBCHEM_IUPAC_OPENEYE_NAME>
chromen-2-one

> <PUBCHEM_IUPAC_CAS_NAME>
1-benzopyran-2-one

> <PUBCHEM_IUPAC_NAME>
chromen-2-one

> <PUBCHEM_IUPAC_SYSTEMATIC_NAME>
chromen-2-one

> <PUBCHEM_IUPAC_TRADITIONAL_NAME>
coumarin

> <PUBCHEM_IUPAC_INCHI>
InChI=1S/C9H6O2/c10-9-6-5-7-3-1-2-4-8(7)11-9/h1-6H

> <PUBCHEM_IUPAC_INCHIKEY>
ZYGHJZDHTFUPRJ-UHFFFAOYSA-N

> <PUBCHEM_XLOGP3>
1.4

> <PUBCHEM_EXACT_MASS>
146.036779

> <PUBCHEM_MOLECULAR_FORMULA>
C9H6O2

> <PUBCHEM_MOLECULAR_WEIGHT>
146.14274

> <PUBCHEM_OPENEYE_CAN_SMILES>
C1=CC=C2C(=C1)C=CC(=O)O2

> <PUBCHEM_OPENEYE_ISO_SMILES>
C1=CC=C2C(=C1)C=CC(=O)O2

> <PUBCHEM_CACTVS_TPSA>
26.3

> <PUBCHEM_MONOISOTOPIC_WEIGHT>
146.036779

> <PUBCHEM_TOTAL_CHARGE>
0

> <PUBCHEM_HEAVY_ATOM_COUNT>
11

> <PUBCHEM_ATOM_DEF_STEREO_COUNT>
0

> <PUBCHEM_ATOM_UDEF_STEREO_COUNT>
0

> <PUBCHEM_BOND_DEF_STEREO_COUNT>
0

> <PUBCHEM_BOND_UDEF_STEREO_COUNT>
0

> <PUBCHEM_ISOTOPIC_ATOM_COUNT>
0

> <PUBCHEM_COMPONENT_COUNT>
1

> <PUBCHEM_CACTVS_TAUTO_COUNT>
1

> <PUBCHEM_COORDINATE_TYPE>
1
5
255

> <PUBCHEM_BONDANNOTATIONS>
1  11  8
1  4  8
10  11  8
3  4  8
3  5  8
3  6  8
4  7  8
5  8  8
6  10  8
7  9  8
8  9  8

> <DRUG_ID>
w180

> <DRUG_NAME>
Coumarin

$$$$
197162
  CDK     0927151942
null
 95 97  0  0  0  0  0  0  0  0999 V2000
    6.4605    0.8660    0.0000 S   0  0  0  0  0  0  0  0  0  0  0  0
    6.0420    7.8671    0.0000 O   0  0  0  0  0  0  0  0  0  0  0  0
    4.3100    6.8671    0.0000 O   0  0  0  0  0  0  0  0  0  0  0  0
    7.8216    7.9604    0.0000 O   0  0  0  0  0  0  0  0  0  0  0  0
    8.3975   10.4831    0.0000 O   0  0  0  0  0  0  0  0  0  0  0  0
    7.7741    6.8671    0.0000 O   0  0  0  0  0  0  0  0  0  0  0  0
    2.8100    6.0011    0.0000 O   0  0  0  0  0  0  0  0  0  0  0  0
    6.2695   10.0308    0.0000 O   0  0  0  0  0  0  0  0  0  0  0  0
    9.9798    9.7786    0.0000 O   0  0  0  0  0  0  0  0  0  0  0  0
    1.3100    8.5993    0.0000 O   0  0  0  0  0  0  0  0  0  0  0  0
    0.3100    6.8672    0.0000 O   0  0  0  0  0  0  0  0  0  0  0  0
   11.2000   12.5192    0.0000 O   0  0  0  0  0  0  0  0  0  0  0  0
    9.8920    7.6854    0.0000 O   0  0  0  0  0  0  0  0  0  0  0  0
   12.3756   10.9012    0.0000 O   0  0  0  0  0  0  0  0  0  0  0  0
    7.3266    1.3660    0.0000 O   0  0  0  0  0  0  0  0  0  0  0  0
    5.5945    0.3660    0.0000 O   0  0  0  0  0  0  0  0  0  0  0  0
    5.9605    1.7320    0.0000 O   0  0  0  0  0  0  0  0  0  0  0  0
    6.9605    0.0000    0.0000 O   0  0  0  0  0  0  0  0  0  0  0  0
    4.6760    4.5011    0.0000 N   0  0  0  0  0  0  0  0  0  0  0  0
    7.7741    4.8671    0.0000 N   0  0  0  0  0  0  0  0  0  0  0  0
    3.3100    8.5992    0.0000 N   0  0  0  0  0  0  0  0  0  0  0  0
    9.2110   12.3102    0.0000 N   0  0  0  0  0  0  0  0  0  0  0  0
    1.8100    4.2690    0.0000 N   0  0  0  0  0  0  0  0  0  0  0  0
   12.5566    9.1786    0.0000 N   0  0  0  0  0  0  0  0  0  0  0  0
    6.0420    6.8671    0.0000 C   0  0  1  0  0  0  0  0  0  0  0  0
    5.1760    6.3671    0.0000 C   0  0  1  0  0  0  0  0  0  0  0  0
    5.1760    5.3671    0.0000 C   0  0  2  0  0  0  0  0  0  0  0  0
    6.9081    6.3671    0.0000 C   0  0  2  0  0  0  0  0  0  0  0  0
    6.9081    5.3671    0.0000 C   0  0  1  0  0  0  0  0  0  0  0  0
    6.0420    4.8671    0.0000 C   0  0  0  0  0  0  0  0  0  0  0  0
    6.9081    8.3671    0.0000 C   0  0  2  0  0  0  0  0  0  0  0  0
    7.9908    9.5696    0.0000 C   0  0  1  0  0  0  0  0  0  0  0  0
    7.0126    9.3616    0.0000 C   0  0  1  0  0  0  0  0  0  0  0  0
    8.4908    8.7035    0.0000 C   0  0  1  0  0  0  0  0  0  0  0  0
    3.3100    6.8672    0.0000 C   0  0  1  0  0  0  0  0  0  0  0  0
    2.8100    7.7332    0.0000 C   0  0  1  0  0  0  0  0  0  0  0  0
    1.8100    7.7332    0.0000 C   0  0  2  0  0  0  0  0  0  0  0  0
    9.3920   10.5876    0.0000 C   0  0  1  0  0  0  0  0  0  0  0  0
    1.3100    6.8672    0.0000 C   0  0  1  0  0  0  0  0  0  0  0  0
    1.8100    6.0011    0.0000 C   0  0  1  0  0  0  0  0  0  0  0  0
    9.7988   11.5012    0.0000 C   0  0  1  0  0  0  0  0  0  0  0  0
   10.7933   11.6057    0.0000 C   0  0  2  0  0  0  0  0  0  0  0  0
    9.4853    8.5990    0.0000 C   0  0  0  0  0  0  0  0  0  0  0  0
   11.3811   10.7967    0.0000 C   0  0  1  0  0  0  0  0  0  0  0  0
   10.9743    9.8831    0.0000 C   0  0  2  0  0  0  0  0  0  0  0  0
    1.3100    5.1350    0.0000 C   0  0  0  0  0  0  0  0  0  0  0  0
   11.5621    9.0741    0.0000 C   0  0  0  0  0  0  0  0  0  0  0  0
    6.5790    7.1771    0.0000 H   0  0  0  0  0  0  0  0  0  0  0  0
    4.6391    6.0571    0.0000 H   0  0  0  0  0  0  0  0  0  0  0  0
    4.5772    5.5276    0.0000 H   0  0  0  0  0  0  0  0  0  0  0  0
    6.9081    6.9871    0.0000 H   0  0  0  0  0  0  0  0  0  0  0  0
    6.9081    4.7471    0.0000 H   0  0  0  0  0  0  0  0  0  0  0  0
    5.6435    4.3922    0.0000 H   0  0  0  0  0  0  0  0  0  0  0  0
    6.4406    4.3922    0.0000 H   0  0  0  0  0  0  0  0  0  0  0  0
    6.3881    8.7048    0.0000 H   0  0  0  0  0  0  0  0  0  0  0  0
    7.6006   10.0514    0.0000 H   0  0  0  0  0  0  0  0  0  0  0  0
    7.1731    9.9605    0.0000 H   0  0  0  0  0  0  0  0  0  0  0  0
    8.7129    8.1247    0.0000 H   0  0  0  0  0  0  0  0  0  0  0  0
    3.6200    7.4041    0.0000 H   0  0  0  0  0  0  0  0  0  0  0  0
    3.4300    7.7332    0.0000 H   0  0  0  0  0  0  0  0  0  0  0  0
    1.1900    7.7332    0.0000 H   0  0  0  0  0  0  0  0  0  0  0  0
    4.9860    3.9642    0.0000 H   0  0  0  0  0  0  0  0  0  0  0  0
    4.0560    4.5012    0.0000 H   0  0  0  0  0  0  0  0  0  0  0  0
    9.1398   10.0212    0.0000 H   0  0  0  0  0  0  0  0  0  0  0  0
    1.0000    7.4041    0.0000 H   0  0  0  0  0  0  0  0  0  0  0  0
    7.7741    4.2471    0.0000 H   0  0  0  0  0  0  0  0  0  0  0  0
    8.3110    5.1771    0.0000 H   0  0  0  0  0  0  0  0  0  0  0  0
    2.1200    5.4642    0.0000 H   0  0  0  0  0  0  0  0  0  0  0  0
    9.1822   11.4364    0.0000 H   0  0  0  0  0  0  0  0  0  0  0  0
    8.3110    6.5571    0.0000 H   0  0  0  0  0  0  0  0  0  0  0  0
   11.4099   11.6705    0.0000 H   0  0  0  0  0  0  0  0  0  0  0  0
   10.0869    8.7490    0.0000 H   0  0  0  0  0  0  0  0  0  0  0  0
    9.4420    9.2175    0.0000 H   0  0  0  0  0  0  0  0  0  0  0  0
   11.6332   11.3631    0.0000 H   0  0  0  0  0  0  0  0  0  0  0  0
   10.7221    9.3167    0.0000 H   0  0  0  0  0  0  0  0  0  0  0  0
    6.3984   10.6372    0.0000 H   0  0  0  0  0  0  0  0  0  0  0  0
    0.8351    5.5336    0.0000 H   0  0  0  0  0  0  0  0  0  0  0  0
    0.8351    4.7365    0.0000 H   0  0  0  0  0  0  0  0  0  0  0  0
    3.0000    9.1361    0.0000 H   0  0  0  0  0  0  0  0  0  0  0  0
    3.9300    8.5992    0.0000 H   0  0  0  0  0  0  0  0  0  0  0  0
   11.0049    8.8023    0.0000 H   0  0  0  0  0  0  0  0  0  0  0  0
   11.7330    8.4781    0.0000 H   0  0  0  0  0  0  0  0  0  0  0  0
    9.4631   12.8766    0.0000 H   0  0  0  0  0  0  0  0  0  0  0  0
    8.5944   12.2454    0.0000 H   0  0  0  0  0  0  0  0  0  0  0  0
    0.6900    8.5992    0.0000 H   0  0  0  0  0  0  0  0  0  0  0  0
    0.0000    6.3302    0.0000 H   0  0  0  0  0  0  0  0  0  0  0  0
   11.8166   12.5841    0.0000 H   0  0  0  0  0  0  0  0  0  0  0  0
   10.5086    7.6206    0.0000 H   0  0  0  0  0  0  0  0  0  0  0  0
   12.6278   11.4676    0.0000 H   0  0  0  0  0  0  0  0  0  0  0  0
    1.5001    3.7321    0.0000 H   0  0  0  0  0  0  0  0  0  0  0  0
    2.4301    4.2690    0.0000 H   0  0  0  0  0  0  0  0  0  0  0  0
   12.9211    8.6771    0.0000 H   0  0  0  0  0  0  0  0  0  0  0  0
   12.8088    9.7451    0.0000 H   0  0  0  0  0  0  0  0  0  0  0  0
    7.8635    1.0560    0.0000 H   0  0  0  0  0  0  0  0  0  0  0  0
    5.0576    0.6760    0.0000 H   0  0  0  0  0  0  0  0  0  0  0  0
  1 15  1  0  0  0  0 
  1 16  1  0  0  0  0 
  1 17  2  0  0  0  0 
  1 18  2  0  0  0  0 
 25  2  1  6  0  0  0 
 31  2  1  1  0  0  0 
 26  3  1  1  0  0  0 
 35  3  1  1  0  0  0 
  4 31  1  0  0  0  0 
  4 34  1  0  0  0  0 
 32  5  1  6  0  0  0 
 38  5  1  6  0  0  0 
 28  6  1  1  0  0  0 
  6 70  1  0  0  0  0 
  7 35  1  0  0  0  0 
  7 40  1  0  0  0  0 
 33  8  1  6  0  0  0 
  8 76  1  0  0  0  0 
  9 38  1  0  0  0  0 
  9 45  1  0  0  0  0 
 37 10  1  6  0  0  0 
 10 85  1  0  0  0  0 
 39 11  1  1  0  0  0 
 11 86  1  0  0  0  0 
 42 12  1  1  0  0  0 
 12 87  1  0  0  0  0 
 13 43  1  0  0  0  0 
 13 88  1  0  0  0  0 
 44 14  1  6  0  0  0 
 14 89  1  0  0  0  0 
 15 94  1  0  0  0  0 
 16 95  1  0  0  0  0 
 27 19  1  6  0  0  0 
 19 62  1  0  0  0  0 
 19 63  1  0  0  0  0 
 29 20  1  6  0  0  0 
 20 66  1  0  0  0  0 
 20 67  1  0  0  0  0 
 36 21  1  1  0  0  0 
 21 79  1  0  0  0  0 
 21 80  1  0  0  0  0 
 41 22  1  6  0  0  0 
 22 83  1  0  0  0  0 
 22 84  1  0  0  0  0 
 23 46  1  0  0  0  0 
 23 90  1  0  0  0  0 
 23 91  1  0  0  0  0 
 24 47  1  0  0  0  0 
 24 92  1  0  0  0  0 
 24 93  1  0  0  0  0 
 25 26  1  0  0  0  0 
 25 28  1  0  0  0  0 
 25 48  1  0  0  0  0 
 26 27  1  0  0  0  0 
 26 49  1  0  0  0  0 
 27 30  1  0  0  0  0 
 27 50  1  0  0  0  0 
 28 29  1  0  0  0  0 
 28 51  1  0  0  0  0 
 29 30  1  0  0  0  0 
 29 52  1  0  0  0  0 
 30 53  1  0  0  0  0 
 30 54  1  0  0  0  0 
 31 33  1  0  0  0  0 
 31 55  1  0  0  0  0 
 32 33  1  0  0  0  0 
 32 34  1  0  0  0  0 
 32 56  1  0  0  0  0 
 33 57  1  0  0  0  0 
 34 43  1  1  0  0  0 
 34 58  1  0  0  0  0 
 35 36  1  0  0  0  0 
 35 59  1  0  0  0  0 
 36 37  1  0  0  0  0 
 36 60  1  0  0  0  0 
 37 39  1  0  0  0  0 
 37 61  1  0  0  0  0 
 38 41  1  0  0  0  0 
 38 64  1  0  0  0  0 
 39 40  1  0  0  0  0 
 39 65  1  0  0  0  0 
 40 46  1  6  0  0  0 
 40 68  1  0  0  0  0 
 41 42  1  0  0  0  0 
 41 69  1  0  0  0  0 
 42 44  1  0  0  0  0 
 42 71  1  0  0  0  0 
 43 72  1  0  0  0  0 
 43 73  1  0  0  0  0 
 44 45  1  0  0  0  0 
 44 74  1  0  0  0  0 
 45 47  1  6  0  0  0 
 45 75  1  0  0  0  0 
 46 77  1  0  0  0  0 
 46 78  1  0  0  0  0 
 47 81  1  0  0  0  0 
 47 82  1  0  0  0  0 
M  END
> <cdk:Title>
197162

> <cdk:Remark>
null

> <PUBCHEM_COMPOUND_CID>
197162

> <PUBCHEM_COMPOUND_CANONICALIZED>
1

> <PUBCHEM_CACTVS_COMPLEXITY>
953

> <PUBCHEM_CACTVS_HBOND_ACCEPTOR>
23

> <PUBCHEM_CACTVS_HBOND_DONOR>
15

> <PUBCHEM_CACTVS_ROTATABLE_BOND>
9

> <PUBCHEM_CACTVS_SUBSKEYS>
AAADcfB7vgBAAAAAAAAAAAAAAAAAASAAAAA0SIAAAAAAAAAAAAAAHgAQCAAACDzxgAcACABABoAAAAAAADAAAAAAAAAAAIAAAAATEAIAwAAjQAAHEAAHAAHwcA0AAAAAAAAAAAAAgAAUCACgAAAAAAAAAA==

> <PUBCHEM_IUPAC_OPENEYE_NAME>
(2R,3S,4R,5R,6R)-5-amino-2-(aminomethyl)-6-[(1R,2R,3S,4R,6S)-4,6-diamino-2-[(2S,3R,4S,5R)-4-[(2R,3R,4R,5S,6S)-3-amino-6-(aminomethyl)-4,5-dihydroxy-tetrahydropyran-2-yl]oxy-3-hydroxy-5-(hydroxymethyl)tetrahydrofuran-2-yl]oxy-3-hydroxy-cyclohexoxy]tetrahydropyran-3,4-diol;sulfuric acid

> <PUBCHEM_IUPAC_CAS_NAME>
(2R,3S,4R,5R,6R)-5-amino-2-(aminomethyl)-6-[(1R,2R,3S,4R,6S)-4,6-diamino-2-[[(2S,3R,4S,5R)-4-[[(2R,3R,4R,5S,6S)-3-amino-6-(aminomethyl)-4,5-dihydroxy-2-oxanyl]oxy]-3-hydroxy-5-(hydroxymethyl)-2-oxolanyl]oxy]-3-hydroxycyclohexyl]oxyoxane-3,4-diol;sulfuric acid

> <PUBCHEM_IUPAC_NAME>
(2R,3S,4R,5R,6R)-5-amino-2-(aminomethyl)-6-[(1R,2R,3S,4R,6S)-4,6-diamino-2-[(2S,3R,4S,5R)-4-[(2R,3R,4R,5S,6S)-3-amino-6-(aminomethyl)-4,5-dihydroxyoxan-2-yl]oxy-3-hydroxy-5-(hydroxymethyl)oxolan-2-yl]oxy-3-hydroxycyclohexyl]oxyoxane-3,4-diol;sulfuric acid

> <PUBCHEM_IUPAC_SYSTEMATIC_NAME>
(2R,3S,4R,5R,6R)-2-(aminomethyl)-6-[(1R,2R,3S,4R,6S)-2-[(2S,3R,4S,5R)-4-[(2R,3R,4R,5S,6S)-6-(aminomethyl)-3-azanyl-4,5-bis(oxidanyl)oxan-2-yl]oxy-5-(hydroxymethyl)-3-oxidanyl-oxolan-2-yl]oxy-4,6-bis(azanyl)-3-oxidanyl-cyclohexyl]oxy-5-azanyl-oxane-3,4-diol;sulfuric acid

> <PUBCHEM_IUPAC_TRADITIONAL_NAME>
(2R,3S,4R,5R,6R)-5-amino-2-(aminomethyl)-6-[(1R,2R,3S,4R,6S)-4,6-diamino-2-[(2S,3R,4S,5R)-4-[(2R,3R,4R,5S,6S)-3-amino-6-(aminomethyl)-4,5-dihydroxy-tetrahydropyran-2-yl]oxy-3-hydroxy-5-methylol-tetrahydrofuran-2-yl]oxy-3-hydroxy-cyclohexoxy]tetrahydropyran-3,4-diol;sulfuric acid

> <PUBCHEM_IUPAC_INCHI>
InChI=1S/C23H46N6O13.H2O4S/c24-2-7-13(32)15(34)10(28)21(37-7)40-18-6(27)1-5(26)12(31)20(18)42-23-17(36)19(9(4-30)39-23)41-22-11(29)16(35)14(33)8(3-25)38-22;1-5(2,3)4/h5-23,30-36H,1-4,24-29H2;(H2,1,2,3,4)/t5-,6+,7-,8+,9-,10-,11-,12+,13-,14-,15-,16-,17-,18-,19-,20-,21-,22-,23+;/m1./s1

> <PUBCHEM_IUPAC_INCHIKEY>
OIXVKQDWLFHVGR-WQDIDPJDSA-N

> <PUBCHEM_EXACT_MASS>
712.279665

> <PUBCHEM_MOLECULAR_FORMULA>
C23H48N6O17S

> <PUBCHEM_MOLECULAR_WEIGHT>
712.72222

> <PUBCHEM_OPENEYE_CAN_SMILES>
C1C(C(C(C(C1N)OC2C(C(C(C(O2)CN)O)O)N)OC3C(C(C(O3)CO)OC4C(C(C(C(O4)CN)O)O)N)O)O)N.OS(=O)(=O)O

> <PUBCHEM_OPENEYE_ISO_SMILES>
C1[C@H]([C@@H]([C@H]([C@@H]([C@H]1N)O[C@@H]2[C@@H]([C@H]([C@@H]([C@H](O2)CN)O)O)N)O[C@H]3[C@@H]([C@@H]([C@H](O3)CO)O[C@@H]4[C@@H]([C@H]([C@@H]([C@@H](O4)CN)O)O)N)O)O)N.OS(=O)(=O)O

> <PUBCHEM_CACTVS_TPSA>
436

> <PUBCHEM_MONOISOTOPIC_WEIGHT>
712.279665

> <PUBCHEM_TOTAL_CHARGE>
0

> <PUBCHEM_HEAVY_ATOM_COUNT>
47

> <PUBCHEM_ATOM_DEF_STEREO_COUNT>
19

> <PUBCHEM_ATOM_UDEF_STEREO_COUNT>
0

> <PUBCHEM_BOND_DEF_STEREO_COUNT>
0

> <PUBCHEM_BOND_UDEF_STEREO_COUNT>
0

> <PUBCHEM_ISOTOPIC_ATOM_COUNT>
0

> <PUBCHEM_COMPONENT_COUNT>
2

> <PUBCHEM_CACTVS_TAUTO_COUNT>
1

> <PUBCHEM_COORDINATE_TYPE>
1
5
255

> <PUBCHEM_BONDANNOTATIONS>
37  10  6
39  11  5
42  12  5
44  14  6
27  19  6
25  2  6
31  2  5
29  20  6
36  21  5
41  22  6
26  3  5
35  3  5
34  43  5
40  46  6
45  47  6
32  5  6
38  5  6
28  6  5
33  8  6

> <DRUG_ID>
w181

> <DRUG_NAME>
Neomycin Sulfate

$$$$
54671203
  CDK     0927151942
null
 56 59  0  0  0  0  0  0  0  0999 V2000
    6.9338   -1.9246    0.0000 O   0  0  0  0  0  0  0  0  0  0  0  0
    6.0678    1.5754    0.0000 O   0  0  0  0  0  0  0  0  0  0  0  0
    6.9338    2.0754    0.0000 O   0  0  0  0  0  0  0  0  0  0  0  0
    4.8427    2.0536    0.0000 O   0  0  0  0  0  0  0  0  0  0  0  0
    8.6822    2.1100    0.0000 O   0  0  0  0  0  0  0  0  0  0  0  0
    3.4037   -0.9488    0.0000 O   0  0  0  0  0  0  0  0  0  0  0  0
   10.5194    2.1530    0.0000 O   0  0  0  0  0  0  0  0  0  0  0  0
    3.4075    2.0995    0.0000 O   0  0  0  0  0  0  0  0  0  0  0  0
    5.1854   -1.9592    0.0000 N   0  0  0  0  0  0  0  0  0  0  0  0
    2.5357    0.6029    0.0000 N   0  0  0  0  0  0  0  0  0  0  0  0
    6.0678   -0.4246    0.0000 C   0  0  2  0  0  0  0  0  0  0  0  0
    7.7998   -0.4246    0.0000 C   0  0  2  0  0  0  0  0  0  0  0  0
    6.9338   -0.9246    0.0000 C   0  0  2  0  0  0  0  0  0  0  0  0
    6.0678    0.5754    0.0000 C   0  0  1  0  0  0  0  0  0  0  0  0
    5.1738   -0.9593    0.0000 C   0  0  1  0  0  0  0  0  0  0  0  0
    8.6938   -0.9593    0.0000 C   0  0  2  0  0  0  0  0  0  0  0  0
    7.7998    0.5754    0.0000 C   0  0  0  0  0  0  0  0  0  0  0  0
    6.9338    1.0754    0.0000 C   0  0  0  0  0  0  0  0  0  0  0  0
    5.1738    1.1100    0.0000 C   0  0  0  0  0  0  0  0  0  0  0  0
    9.5998   -0.4455    0.0000 C   0  0  0  0  0  0  0  0  0  0  0  0
    4.2678   -0.4455    0.0000 C   0  0  0  0  0  0  0  0  0  0  0  0
    8.6938    1.1100    0.0000 C   0  0  0  0  0  0  0  0  0  0  0  0
    4.2678    0.5962    0.0000 C   0  0  0  0  0  0  0  0  0  0  0  0
    9.5998    0.5962    0.0000 C   0  0  0  0  0  0  0  0  0  0  0  0
    8.6822   -1.9592    0.0000 C   0  0  0  0  0  0  0  0  0  0  0  0
   10.5310   -1.0024    0.0000 C   0  0  0  0  0  0  0  0  0  0  0  0
    4.3252   -2.4692    0.0000 C   0  0  0  0  0  0  0  0  0  0  0  0
    6.0572   -2.4492    0.0000 C   0  0  0  0  0  0  0  0  0  0  0  0
   10.5310    1.1531    0.0000 C   0  0  0  0  0  0  0  0  0  0  0  0
    3.4037    1.0995    0.0000 C   0  0  0  0  0  0  0  0  0  0  0  0
   11.4748   -0.4671    0.0000 C   0  0  0  0  0  0  0  0  0  0  0  0
   11.4748    0.6179    0.0000 C   0  0  0  0  0  0  0  0  0  0  0  0
    6.0743   -1.2746    0.0000 H   0  0  0  0  0  0  0  0  0  0  0  0
    7.7933   -1.2746    0.0000 H   0  0  0  0  0  0  0  0  0  0  0  0
    6.3969   -1.2346    0.0000 H   0  0  0  0  0  0  0  0  0  0  0  0
    5.7149   -1.2620    0.0000 H   0  0  0  0  0  0  0  0  0  0  0  0
    9.2277   -1.2745    0.0000 H   0  0  0  0  0  0  0  0  0  0  0  0
    8.0622   -1.9521    0.0000 H   0  0  0  0  0  0  0  0  0  0  0  0
    8.6750   -2.5792    0.0000 H   0  0  0  0  0  0  0  0  0  0  0  0
    9.3022   -1.9664    0.0000 H   0  0  0  0  0  0  0  0  0  0  0  0
    7.4707   -2.2346    0.0000 H   0  0  0  0  0  0  0  0  0  0  0  0
    5.6693    2.0503    0.0000 H   0  0  0  0  0  0  0  0  0  0  0  0
   10.5238   -1.6223    0.0000 H   0  0  0  0  0  0  0  0  0  0  0  0
    5.7534   -2.9897    0.0000 H   0  0  0  0  0  0  0  0  0  0  0  0
    6.5976   -2.7530    0.0000 H   0  0  0  0  0  0  0  0  0  0  0  0
    6.3609   -1.9087    0.0000 H   0  0  0  0  0  0  0  0  0  0  0  0
    4.0090   -1.9359    0.0000 H   0  0  0  0  0  0  0  0  0  0  0  0
    3.7919   -2.7854    0.0000 H   0  0  0  0  0  0  0  0  0  0  0  0
    4.6414   -3.0025    0.0000 H   0  0  0  0  0  0  0  0  0  0  0  0
    4.2334    2.1683    0.0000 H   0  0  0  0  0  0  0  0  0  0  0  0
    9.2155    2.4261    0.0000 H   0  0  0  0  0  0  0  0  0  0  0  0
   12.0105   -0.7792    0.0000 H   0  0  0  0  0  0  0  0  0  0  0  0
   12.0105    0.9299    0.0000 H   0  0  0  0  0  0  0  0  0  0  0  0
    2.0000    0.9149    0.0000 H   0  0  0  0  0  0  0  0  0  0  0  0
    2.5334   -0.0171    0.0000 H   0  0  0  0  0  0  0  0  0  0  0  0
   11.0528    2.4692    0.0000 H   0  0  0  0  0  0  0  0  0  0  0  0
 13  1  1  6  0  0  0 
  1 41  1  0  0  0  0 
 14  2  1  6  0  0  0 
  2 42  1  0  0  0  0 
  3 18  2  0  0  0  0 
  4 19  1  0  0  0  0 
  4 50  1  0  0  0  0 
  5 22  1  0  0  0  0 
  5 51  1  0  0  0  0 
  6 21  2  0  0  0  0 
  7 29  1  0  0  0  0 
  7 56  1  0  0  0  0 
  8 30  2  0  0  0  0 
 15  9  1  6  0  0  0 
  9 27  1  0  0  0  0 
  9 28  1  0  0  0  0 
 10 30  1  0  0  0  0 
 10 54  1  0  0  0  0 
 10 55  1  0  0  0  0 
 11 13  1  0  0  0  0 
 11 14  1  0  0  0  0 
 11 15  1  0  0  0  0 
 11 33  1  6  0  0  0 
 12 13  1  0  0  0  0 
 12 16  1  0  0  0  0 
 12 17  1  0  0  0  0 
 12 34  1  6  0  0  0 
 13 35  1  0  0  0  0 
 14 18  1  0  0  0  0 
 14 19  1  0  0  0  0 
 15 21  1  0  0  0  0 
 15 36  1  0  0  0  0 
 16 20  1  0  0  0  0 
 16 25  1  6  0  0  0 
 16 37  1  0  0  0  0 
 17 18  1  0  0  0  0 
 17 22  2  0  0  0  0 
 19 23  2  0  0  0  0 
 20 24  2  0  0  0  0 
 20 26  1  0  0  0  0 
 21 23  1  0  0  0  0 
 22 24  1  0  0  0  0 
 23 30  1  0  0  0  0 
 24 29  1  0  0  0  0 
 25 38  1  0  0  0  0 
 25 39  1  0  0  0  0 
 25 40  1  0  0  0  0 
 26 31  2  0  0  0  0 
 26 43  1  0  0  0  0 
 27 47  1  0  0  0  0 
 27 48  1  0  0  0  0 
 27 49  1  0  0  0  0 
 28 44  1  0  0  0  0 
 28 45  1  0  0  0  0 
 28 46  1  0  0  0  0 
 29 32  2  0  0  0  0 
 31 32  1  0  0  0  0 
 31 52  1  0  0  0  0 
 32 53  1  0  0  0  0 
M  END
> <cdk:Title>
54671203

> <cdk:Remark>
null

> <PUBCHEM_COMPOUND_CID>
54671203

> <PUBCHEM_COMPOUND_CANONICALIZED>
1

> <PUBCHEM_CACTVS_COMPLEXITY>
956

> <PUBCHEM_CACTVS_HBOND_ACCEPTOR>
9

> <PUBCHEM_CACTVS_HBOND_DONOR>
6

> <PUBCHEM_CACTVS_ROTATABLE_BOND>
2

> <PUBCHEM_CACTVS_SUBSKEYS>
AAADceB7PAAAAAAAAAAAAAAAAAAAAAAAAAAwYIEAAAAAAACBAAAAHgAQCAAADXzhmAYyBoNAAgCIAqFSEAKCAAAgIAAIiAHOCMgJNz6KkTKEcAAn4BEJmQf+7vSugAABAAAYAADAAAYQADAAAAAAAAAAAA==

> <PUBCHEM_IUPAC_OPENEYE_NAME>
(4S,4aR,5S,5aR,6R,12aR)-4-(dimethylamino)-1,5,10,11,12a-pentahydroxy-6-methyl-3,12-dioxo-4a,5,5a,6-tetrahydro-4H-tetracene-2-carboxamide

> <PUBCHEM_IUPAC_CAS_NAME>
(4S,4aR,5S,5aR,6R,12aR)-4-(dimethylamino)-1,5,10,11,12a-pentahydroxy-6-methyl-3,12-dioxo-4a,5,5a,6-tetrahydro-4H-tetracene-2-carboxamide

> <PUBCHEM_IUPAC_NAME>
(4S,4aR,5S,5aR,6R,12aR)-4-(dimethylamino)-1,5,10,11,12a-pentahydroxy-6-methyl-3,12-dioxo-4a,5,5a,6-tetrahydro-4H-tetracene-2-carboxamide

> <PUBCHEM_IUPAC_SYSTEMATIC_NAME>
(4S,4aR,5S,5aR,6R,12aR)-4-(dimethylamino)-6-methyl-1,5,10,11,12a-pentakis(oxidanyl)-3,12-bis(oxidanylidene)-4a,5,5a,6-tetrahydro-4H-tetracene-2-carboxamide

> <PUBCHEM_IUPAC_TRADITIONAL_NAME>
(4S,4aR,5S,5aR,6R,12aR)-4-(dimethylamino)-1,5,10,11,12a-pentahydroxy-3,12-diketo-6-methyl-4a,5,5a,6-tetrahydro-4H-tetracene-2-carboxamide

> <PUBCHEM_IUPAC_INCHI>
InChI=1S/C22H24N2O8/c1-7-8-5-4-6-9(25)11(8)16(26)12-10(7)17(27)14-15(24(2)3)18(28)13(21(23)31)20(30)22(14,32)19(12)29/h4-7,10,14-15,17,25-27,30,32H,1-3H3,(H2,23,31)/t7-,10+,14+,15-,17-,22-/m0/s1

> <PUBCHEM_IUPAC_INCHIKEY>
SGKRLCUYIXIAHR-AKNGSSGZSA-N

> <PUBCHEM_XLOGP3>
-0.7

> <PUBCHEM_EXACT_MASS>
444.153266

> <PUBCHEM_MOLECULAR_FORMULA>
C22H24N2O8

> <PUBCHEM_MOLECULAR_WEIGHT>
444.43456

> <PUBCHEM_OPENEYE_CAN_SMILES>
CC1C2C(C3C(C(=O)C(=C(C3(C(=O)C2=C(C4=C1C=CC=C4O)O)O)O)C(=O)N)N(C)C)O

> <PUBCHEM_OPENEYE_ISO_SMILES>
C[C@@H]1[C@H]2[C@@H]([C@H]3[C@@H](C(=O)C(=C([C@]3(C(=O)C2=C(C4=C1C=CC=C4O)O)O)O)C(=O)N)N(C)C)O

> <PUBCHEM_CACTVS_TPSA>
182

> <PUBCHEM_MONOISOTOPIC_WEIGHT>
444.153266

> <PUBCHEM_TOTAL_CHARGE>
0

> <PUBCHEM_HEAVY_ATOM_COUNT>
32

> <PUBCHEM_ATOM_DEF_STEREO_COUNT>
6

> <PUBCHEM_ATOM_UDEF_STEREO_COUNT>
0

> <PUBCHEM_BOND_DEF_STEREO_COUNT>
0

> <PUBCHEM_BOND_UDEF_STEREO_COUNT>
0

> <PUBCHEM_ISOTOPIC_ATOM_COUNT>
0

> <PUBCHEM_COMPONENT_COUNT>
1

> <PUBCHEM_CACTVS_TAUTO_COUNT>
420

> <PUBCHEM_COORDINATE_TYPE>
1
5
255

> <PUBCHEM_BONDANNOTATIONS>
13  1  6
11  33  6
12  34  6
16  25  6
14  2  6
20  24  8
20  26  8
24  29  8
26  31  8
29  32  8
31  32  8
15  9  6

> <DRUG_ID>
w182

> <DRUG_NAME>
Doxycycline

$$$$
65464
  CDK     0927151942
null
 48 49  0  0  0  0  0  0  0  0999 V2000
    9.6875    4.2412    0.0000 Cl  0  0  0  0  0  0  0  0  0  0  0  0
    3.5259    3.5192    0.0000 O   0  0  0  0  0  0  0  0  0  0  0  0
    3.2152    6.0792    0.0000 N   0  0  0  0  0  0  0  0  0  0  0  0
    3.7988    5.2745    0.0000 N   0  0  0  0  0  0  0  0  0  0  0  0
    6.1042    1.2058    0.0000 N   0  0  0  0  0  0  0  0  0  0  0  0
    2.2690    5.7745    0.0000 C   0  0  0  0  0  0  0  0  0  0  0  0
    2.2690    4.7745    0.0000 C   0  0  0  0  0  0  0  0  0  0  0  0
    4.8150    2.3625    0.0000 C   0  0  0  0  0  0  0  0  0  0  0  0
    3.5259    7.0298    0.0000 C   0  0  0  0  0  0  0  0  0  0  0  0
    3.2152    4.4698    0.0000 C   0  0  0  0  0  0  0  0  0  0  0  0
    5.7935    2.1563    0.0000 C   0  0  0  0  0  0  0  0  0  0  0  0
    4.5044    3.3130    0.0000 C   0  0  0  0  0  0  0  0  0  0  0  0
    1.4030    6.2745    0.0000 C   0  0  0  0  0  0  0  0  0  0  0  0
    4.5044    7.2360    0.0000 C   0  0  0  0  0  0  0  0  0  0  0  0
    1.4030    4.2745    0.0000 C   0  0  0  0  0  0  0  0  0  0  0  0
    0.5369    5.7745    0.0000 C   0  0  0  0  0  0  0  0  0  0  0  0
    0.5369    4.7745    0.0000 C   0  0  0  0  0  0  0  0  0  0  0  0
    4.8150    8.1865    0.0000 C   0  0  0  0  0  0  0  0  0  0  0  0
    5.1722    6.4917    0.0000 C   0  0  0  0  0  0  0  0  0  0  0  0
    7.0827    0.9996    0.0000 C   0  0  0  0  0  0  0  0  0  0  0  0
    5.4364    0.4615    0.0000 C   0  0  0  0  0  0  0  0  0  0  0  0
    5.7935    8.3927    0.0000 C   0  0  0  0  0  0  0  0  0  0  0  0
    6.1507    6.6979    0.0000 C   0  0  0  0  0  0  0  0  0  0  0  0
    6.4614    7.6484    0.0000 C   0  0  0  0  0  0  0  0  0  0  0  0
    4.2012    2.2752    0.0000 H   0  0  0  0  0  0  0  0  0  0  0  0
    4.7945    1.7428    0.0000 H   0  0  0  0  0  0  0  0  0  0  0  0
    3.5053    7.6494    0.0000 H   0  0  0  0  0  0  0  0  0  0  0  0
    2.9120    7.1171    0.0000 H   0  0  0  0  0  0  0  0  0  0  0  0
    6.4074    2.2436    0.0000 H   0  0  0  0  0  0  0  0  0  0  0  0
    5.8141    2.7760    0.0000 H   0  0  0  0  0  0  0  0  0  0  0  0
    5.1182    3.4004    0.0000 H   0  0  0  0  0  0  0  0  0  0  0  0
    4.5249    3.9327    0.0000 H   0  0  0  0  0  0  0  0  0  0  0  0
    1.4030    6.8945    0.0000 H   0  0  0  0  0  0  0  0  0  0  0  0
    1.4030    3.6545    0.0000 H   0  0  0  0  0  0  0  0  0  0  0  0
    0.0000    6.0845    0.0000 H   0  0  0  0  0  0  0  0  0  0  0  0
    0.0000    4.4645    0.0000 H   0  0  0  0  0  0  0  0  0  0  0  0
    4.9749    0.8755    0.0000 H   0  0  0  0  0  0  0  0  0  0  0  0
    6.9549    0.3929    0.0000 H   0  0  0  0  0  0  0  0  0  0  0  0
    7.6894    0.8717    0.0000 H   0  0  0  0  0  0  0  0  0  0  0  0
    7.2106    1.6062    0.0000 H   0  0  0  0  0  0  0  0  0  0  0  0
    5.0223    0.0000    0.0000 H   0  0  0  0  0  0  0  0  0  0  0  0
    5.8978    0.0474    0.0000 H   0  0  0  0  0  0  0  0  0  0  0  0
    4.4010    8.6480    0.0000 H   0  0  0  0  0  0  0  0  0  0  0  0
    4.9796    5.9024    0.0000 H   0  0  0  0  0  0  0  0  0  0  0  0
    5.9862    8.9820    0.0000 H   0  0  0  0  0  0  0  0  0  0  0  0
    6.5648    6.2364    0.0000 H   0  0  0  0  0  0  0  0  0  0  0  0
    7.0681    7.7763    0.0000 H   0  0  0  0  0  0  0  0  0  0  0  0
   10.6875    4.2412    0.0000 H   0  0  0  0  0  0  0  0  0  0  0  0
  1 48  1  0  0  0  0 
  2 10  1  0  0  0  0 
  2 12  1  0  0  0  0 
  3  4  1  0  0  0  0 
  3  6  1  0  0  0  0 
  3  9  1  0  0  0  0 
  4 10  2  0  0  0  0 
  5 11  1  0  0  0  0 
  5 20  1  0  0  0  0 
  5 21  1  0  0  0  0 
  6  7  1  0  0  0  0 
  6 13  2  0  0  0  0 
  7 10  1  0  0  0  0 
  7 15  2  0  0  0  0 
  8 11  1  0  0  0  0 
  8 12  1  0  0  0  0 
  8 25  1  0  0  0  0 
  8 26  1  0  0  0  0 
  9 14  1  0  0  0  0 
  9 27  1  0  0  0  0 
  9 28  1  0  0  0  0 
 11 29  1  0  0  0  0 
 11 30  1  0  0  0  0 
 12 31  1  0  0  0  0 
 12 32  1  0  0  0  0 
 13 16  1  0  0  0  0 
 13 33  1  0  0  0  0 
 14 18  2  0  0  0  0 
 14 19  1  0  0  0  0 
 15 17  1  0  0  0  0 
 15 34  1  0  0  0  0 
 16 17  2  0  0  0  0 
 16 35  1  0  0  0  0 
 17 36  1  0  0  0  0 
 18 22  1  0  0  0  0 
 18 43  1  0  0  0  0 
 19 23  2  0  0  0  0 
 19 44  1  0  0  0  0 
 20 38  1  0  0  0  0 
 20 39  1  0  0  0  0 
 20 40  1  0  0  0  0 
 21 37  1  0  0  0  0 
 21 41  1  0  0  0  0 
 21 42  1  0  0  0  0 
 22 24  2  0  0  0  0 
 22 45  1  0  0  0  0 
 23 24  1  0  0  0  0 
 23 46  1  0  0  0  0 
 24 47  1  0  0  0  0 
M  END
> <cdk:Title>
65464

> <cdk:Remark>
null

> <PUBCHEM_COMPOUND_CID>
65464

> <PUBCHEM_COMPOUND_CANONICALIZED>
1

> <PUBCHEM_CACTVS_COMPLEXITY>
344

> <PUBCHEM_CACTVS_HBOND_ACCEPTOR>
3

> <PUBCHEM_CACTVS_HBOND_DONOR>
1

> <PUBCHEM_CACTVS_ROTATABLE_BOND>
7

> <PUBCHEM_CACTVS_SUBSKEYS>
AAADceB7IAAEAAAAAAAAAAAAAAAAAWAAAAAwYAAAAAAAAFgB9AAAHgAIAAAADAjhngYyxPMIBACiAyRiRACSDAAhogAY2CA8bJgMJqLE8duOvCjmyBnI6AeQwCAOAAAAAAACAAAAAAAAAAQAAAAAAAAAAA==

> <PUBCHEM_IUPAC_OPENEYE_NAME>
3-(1-benzylindazol-3-yl)oxy-N,N-dimethyl-propan-1-amine;hydrochloride

> <PUBCHEM_IUPAC_CAS_NAME>
N,N-dimethyl-3-[[1-(phenylmethyl)-3-indazolyl]oxy]-1-propanamine;hydrochloride

> <PUBCHEM_IUPAC_NAME>
3-(1-benzylindazol-3-yl)oxy-N,N-dimethylpropan-1-amine;hydrochloride

> <PUBCHEM_IUPAC_SYSTEMATIC_NAME>
N,N-dimethyl-3-[1-(phenylmethyl)indazol-3-yl]oxy-propan-1-amine;hydrochloride

> <PUBCHEM_IUPAC_TRADITIONAL_NAME>
3-(1-benzylindazol-3-yl)oxypropyl-dimethyl-amine;hydrochloride

> <PUBCHEM_IUPAC_INCHI>
InChI=1S/C19H23N3O.ClH/c1-21(2)13-8-14-23-19-17-11-6-7-12-18(17)22(20-19)15-16-9-4-3-5-10-16;/h3-7,9-12H,8,13-15H2,1-2H3;1H

> <PUBCHEM_IUPAC_INCHIKEY>
HNNIWKQLJSNAEQ-UHFFFAOYSA-N

> <PUBCHEM_EXACT_MASS>
345.16079

> <PUBCHEM_MOLECULAR_FORMULA>
C19H24ClN3O

> <PUBCHEM_MOLECULAR_WEIGHT>
345.86636

> <PUBCHEM_OPENEYE_CAN_SMILES>
CN(C)CCCOC1=NN(C2=CC=CC=C21)CC3=CC=CC=C3.Cl

> <PUBCHEM_OPENEYE_ISO_SMILES>
CN(C)CCCOC1=NN(C2=CC=CC=C21)CC3=CC=CC=C3.Cl

> <PUBCHEM_CACTVS_TPSA>
30.3

> <PUBCHEM_MONOISOTOPIC_WEIGHT>
345.16079

> <PUBCHEM_TOTAL_CHARGE>
0

> <PUBCHEM_HEAVY_ATOM_COUNT>
24

> <PUBCHEM_ATOM_DEF_STEREO_COUNT>
0

> <PUBCHEM_ATOM_UDEF_STEREO_COUNT>
0

> <PUBCHEM_BOND_DEF_STEREO_COUNT>
0

> <PUBCHEM_BOND_UDEF_STEREO_COUNT>
0

> <PUBCHEM_ISOTOPIC_ATOM_COUNT>
0

> <PUBCHEM_COMPONENT_COUNT>
2

> <PUBCHEM_CACTVS_TAUTO_COUNT>
1

> <PUBCHEM_COORDINATE_TYPE>
1
5
255

> <PUBCHEM_BONDANNOTATIONS>
13  16  8
14  18  8
14  19  8
15  17  8
16  17  8
18  22  8
19  23  8
22  24  8
23  24  8
3  4  8
3  6  8
4  10  8
6  13  8
6  7  8
7  10  8
7  15  8

> <DRUG_ID>
w183

> <DRUG_NAME>
Benzydamine Hydrochloride

$$$$
4594
  CDK     0927151942
null
 43 45  0  0  0  0  0  0  0  0999 V2000
    7.9939    0.1690    0.0000 S   0  0  3  0  0  0  0  0  0  0  0  0
   11.4939    1.0350    0.0000 O   0  0  0  0  0  0  0  0  0  0  0  0
    8.4939    1.0350    0.0000 O   0  0  0  0  0  0  0  0  0  0  0  0
    2.8660    1.1690    0.0000 O   0  0  0  0  0  0  0  0  0  0  0  0
    6.4103    0.9737    0.0000 N   0  0  0  0  0  0  0  0  0  0  0  0
    6.4103   -0.6357    0.0000 N   0  0  0  0  0  0  0  0  0  0  0  0
    9.9939   -1.5630    0.0000 N   0  0  0  0  0  0  0  0  0  0  0  0
    8.4939   -0.6970    0.0000 C   0  0  0  0  0  0  0  0  0  0  0  0
    9.4939   -0.6970    0.0000 C   0  0  0  0  0  0  0  0  0  0  0  0
    9.9939    0.1690    0.0000 C   0  0  0  0  0  0  0  0  0  0  0  0
    6.9939    0.1690    0.0000 C   0  0  0  0  0  0  0  0  0  0  0  0
    5.4641    0.6690    0.0000 C   0  0  0  0  0  0  0  0  0  0  0  0
   10.9939    0.1690    0.0000 C   0  0  0  0  0  0  0  0  0  0  0  0
    5.4641   -0.3310    0.0000 C   0  0  0  0  0  0  0  0  0  0  0  0
   11.4939   -0.6970    0.0000 C   0  0  0  0  0  0  0  0  0  0  0  0
    9.4939    1.0350    0.0000 C   0  0  0  0  0  0  0  0  0  0  0  0
    4.5981    1.1690    0.0000 C   0  0  0  0  0  0  0  0  0  0  0  0
   10.9939   -1.5630    0.0000 C   0  0  0  0  0  0  0  0  0  0  0  0
    4.5981   -0.8310    0.0000 C   0  0  0  0  0  0  0  0  0  0  0  0
    3.7320    0.6690    0.0000 C   0  0  0  0  0  0  0  0  0  0  0  0
    3.7320   -0.3310    0.0000 C   0  0  0  0  0  0  0  0  0  0  0  0
   12.4939   -0.6970    0.0000 C   0  0  0  0  0  0  0  0  0  0  0  0
   12.4939    1.0350    0.0000 C   0  0  0  0  0  0  0  0  0  0  0  0
    2.0000    0.6690    0.0000 C   0  0  0  0  0  0  0  0  0  0  0  0
    7.9113   -0.9091    0.0000 H   0  0  0  0  0  0  0  0  0  0  0  0
    8.6016   -1.3076    0.0000 H   0  0  0  0  0  0  0  0  0  0  0  0
    6.6029    1.5630    0.0000 H   0  0  0  0  0  0  0  0  0  0  0  0
   10.0309    1.3450    0.0000 H   0  0  0  0  0  0  0  0  0  0  0  0
    9.1839    1.5720    0.0000 H   0  0  0  0  0  0  0  0  0  0  0  0
    8.9570    0.7250    0.0000 H   0  0  0  0  0  0  0  0  0  0  0  0
    4.5981    1.7890    0.0000 H   0  0  0  0  0  0  0  0  0  0  0  0
   11.3039   -2.1000    0.0000 H   0  0  0  0  0  0  0  0  0  0  0  0
    4.5981   -1.4510    0.0000 H   0  0  0  0  0  0  0  0  0  0  0  0
    3.1951   -0.6410    0.0000 H   0  0  0  0  0  0  0  0  0  0  0  0
   12.4939   -1.3170    0.0000 H   0  0  0  0  0  0  0  0  0  0  0  0
   13.1139   -0.6970    0.0000 H   0  0  0  0  0  0  0  0  0  0  0  0
   12.4939   -0.0770    0.0000 H   0  0  0  0  0  0  0  0  0  0  0  0
   12.4939    0.4150    0.0000 H   0  0  0  0  0  0  0  0  0  0  0  0
   13.1139    1.0350    0.0000 H   0  0  0  0  0  0  0  0  0  0  0  0
   12.4939    1.6550    0.0000 H   0  0  0  0  0  0  0  0  0  0  0  0
    1.6900    1.2059    0.0000 H   0  0  0  0  0  0  0  0  0  0  0  0
    1.4631    0.3590    0.0000 H   0  0  0  0  0  0  0  0  0  0  0  0
    2.3100    0.1321    0.0000 H   0  0  0  0  0  0  0  0  0  0  0  0
  1  3  2  0  0  0  0 
  1  8  1  0  0  0  0 
  1 11  1  0  0  0  0 
  2 13  1  0  0  0  0 
  2 23  1  0  0  0  0 
  4 20  1  0  0  0  0 
  4 24  1  0  0  0  0 
  5 11  1  0  0  0  0 
  5 12  1  0  0  0  0 
  5 27  1  0  0  0  0 
  6 11  2  0  0  0  0 
  6 14  1  0  0  0  0 
  7  9  2  0  0  0  0 
  7 18  1  0  0  0  0 
  8  9  1  0  0  0  0 
  8 25  1  0  0  0  0 
  8 26  1  0  0  0  0 
  9 10  1  0  0  0  0 
 10 13  2  0  0  0  0 
 10 16  1  0  0  0  0 
 12 14  2  0  0  0  0 
 12 17  1  0  0  0  0 
 13 15  1  0  0  0  0 
 14 19  1  0  0  0  0 
 15 18  2  0  0  0  0 
 15 22  1  0  0  0  0 
 16 28  1  0  0  0  0 
 16 29  1  0  0  0  0 
 16 30  1  0  0  0  0 
 17 20  2  0  0  0  0 
 17 31  1  0  0  0  0 
 18 32  1  0  0  0  0 
 19 21  2  0  0  0  0 
 19 33  1  0  0  0  0 
 20 21  1  0  0  0  0 
 21 34  1  0  0  0  0 
 22 35  1  0  0  0  0 
 22 36  1  0  0  0  0 
 22 37  1  0  0  0  0 
 23 38  1  0  0  0  0 
 23 39  1  0  0  0  0 
 23 40  1  0  0  0  0 
 24 41  1  0  0  0  0 
 24 42  1  0  0  0  0 
 24 43  1  0  0  0  0 
M  END
> <cdk:Title>
4594

> <cdk:Remark>
null

> <PUBCHEM_COMPOUND_CID>
4594

> <PUBCHEM_COMPOUND_CANONICALIZED>
1

> <PUBCHEM_CACTVS_COMPLEXITY>
453

> <PUBCHEM_CACTVS_HBOND_ACCEPTOR>
6

> <PUBCHEM_CACTVS_HBOND_DONOR>
1

> <PUBCHEM_CACTVS_ROTATABLE_BOND>
5

> <PUBCHEM_CACTVS_SUBSKEYS>
AAADceB7MABAAAAAAAAAAAAAAAAAAWAAAAA8QAAAAAAAAFgB/AAAHgQQAAAADAzF3ga/1rbJlAqgAzRnZEDK2i3xMrAJ2SA+fJiMbuLkuZuUMChu0BvI6CewUAMOAEAAAgAAACAAgAAEAAAAQAAAAAAAAA==

> <PUBCHEM_IUPAC_OPENEYE_NAME>
6-methoxy-2-[(4-methoxy-3,5-dimethyl-2-pyridyl)methylsulfinyl]-1H-benzimidazole

> <PUBCHEM_IUPAC_CAS_NAME>
6-methoxy-2-[(4-methoxy-3,5-dimethyl-2-pyridinyl)methylsulfinyl]-1H-benzimidazole

> <PUBCHEM_IUPAC_NAME>
6-methoxy-2-[(4-methoxy-3,5-dimethylpyridin-2-yl)methylsulfinyl]-1H-benzimidazole

> <PUBCHEM_IUPAC_SYSTEMATIC_NAME>
6-methoxy-2-[(4-methoxy-3,5-dimethyl-pyridin-2-yl)methylsulfinyl]-1H-benzimidazole

> <PUBCHEM_IUPAC_TRADITIONAL_NAME>
6-methoxy-2-[(4-methoxy-3,5-dimethyl-2-pyridyl)methylsulfinyl]-1H-benzimidazole

> <PUBCHEM_IUPAC_INCHI>
InChI=1S/C17H19N3O3S/c1-10-8-18-15(11(2)16(10)23-4)9-24(21)17-19-13-6-5-12(22-3)7-14(13)20-17/h5-8H,9H2,1-4H3,(H,19,20)

> <PUBCHEM_IUPAC_INCHIKEY>
SUBDBMMJDZJVOS-UHFFFAOYSA-N

> <PUBCHEM_XLOGP3>
2.2

> <PUBCHEM_EXACT_MASS>
345.114712

> <PUBCHEM_MOLECULAR_FORMULA>
C17H19N3O3S

> <PUBCHEM_MOLECULAR_WEIGHT>
345.41606

> <PUBCHEM_OPENEYE_CAN_SMILES>
CC1=CN=C(C(=C1OC)C)CS(=O)C2=NC3=C(N2)C=C(C=C3)OC

> <PUBCHEM_OPENEYE_ISO_SMILES>
CC1=CN=C(C(=C1OC)C)CS(=O)C2=NC3=C(N2)C=C(C=C3)OC

> <PUBCHEM_CACTVS_TPSA>
96.3

> <PUBCHEM_MONOISOTOPIC_WEIGHT>
345.114712

> <PUBCHEM_TOTAL_CHARGE>
0

> <PUBCHEM_HEAVY_ATOM_COUNT>
24

> <PUBCHEM_ATOM_DEF_STEREO_COUNT>
0

> <PUBCHEM_ATOM_UDEF_STEREO_COUNT>
1

> <PUBCHEM_BOND_DEF_STEREO_COUNT>
0

> <PUBCHEM_BOND_UDEF_STEREO_COUNT>
0

> <PUBCHEM_ISOTOPIC_ATOM_COUNT>
0

> <PUBCHEM_COMPONENT_COUNT>
1

> <PUBCHEM_CACTVS_TAUTO_COUNT>
15

> <PUBCHEM_COORDINATE_TYPE>
1
5
255

> <PUBCHEM_BONDANNOTATIONS>
1  8  3
10  13  8
12  14  8
12  17  8
13  15  8
14  19  8
15  18  8
17  20  8
19  21  8
20  21  8
5  11  8
5  12  8
6  11  8
6  14  8
7  18  8
7  9  8
9  10  8

> <DRUG_ID>
w184

> <DRUG_NAME>
Omeprazole

$$$$
3042
  CDK     0927151942
null
 57 58  0  0  0  0  0  0  0  0999 V2000
    5.5000   -0.2990    0.0000 O   0  0  0  0  0  0  0  0  0  0  0  0
    6.6736    0.6858    0.0000 O   0  0  0  0  0  0  0  0  0  0  0  0
    3.5000    1.4330    0.0000 N   0  0  0  0  0  0  0  0  0  0  0  0
    7.0000   -1.1651    0.0000 C   0  0  0  0  0  0  0  0  0  0  0  0
    7.7660   -0.5223    0.0000 C   0  0  0  0  0  0  0  0  0  0  0  0
    6.1340   -1.6651    0.0000 C   0  0  0  0  0  0  0  0  0  0  0  0
    7.8660   -1.6651    0.0000 C   0  0  0  0  0  0  0  0  0  0  0  0
    7.5924    0.4625    0.0000 C   0  0  0  0  0  0  0  0  0  0  0  0
    8.7057   -0.8643    0.0000 C   0  0  0  0  0  0  0  0  0  0  0  0
    6.1340   -2.6651    0.0000 C   0  0  0  0  0  0  0  0  0  0  0  0
    7.8660   -2.6651    0.0000 C   0  0  0  0  0  0  0  0  0  0  0  0
    8.3584    1.1053    0.0000 C   0  0  0  0  0  0  0  0  0  0  0  0
    9.4718   -0.2215    0.0000 C   0  0  0  0  0  0  0  0  0  0  0  0
    7.0000   -3.1651    0.0000 C   0  0  0  0  0  0  0  0  0  0  0  0
    9.2981    0.7633    0.0000 C   0  0  0  0  0  0  0  0  0  0  0  0
    6.5000   -0.2990    0.0000 C   0  0  0  0  0  0  0  0  0  0  0  0
    5.0000    0.5670    0.0000 C   0  0  0  0  0  0  0  0  0  0  0  0
    4.0000    0.5670    0.0000 C   0  0  0  0  0  0  0  0  0  0  0  0
    2.5000    1.4330    0.0000 C   0  0  0  0  0  0  0  0  0  0  0  0
    4.0000    2.2990    0.0000 C   0  0  0  0  0  0  0  0  0  0  0  0
    2.0000    2.2990    0.0000 C   0  0  0  0  0  0  0  0  0  0  0  0
    3.5000    3.1651    0.0000 C   0  0  0  0  0  0  0  0  0  0  0  0
    7.8737   -1.1329    0.0000 H   0  0  0  0  0  0  0  0  0  0  0  0
    5.9219   -1.0824    0.0000 H   0  0  0  0  0  0  0  0  0  0  0  0
    5.5234   -1.7727    0.0000 H   0  0  0  0  0  0  0  0  0  0  0  0
    8.4766   -1.7727    0.0000 H   0  0  0  0  0  0  0  0  0  0  0  0
    8.0781   -1.0824    0.0000 H   0  0  0  0  0  0  0  0  0  0  0  0
    7.2824    0.9995    0.0000 H   0  0  0  0  0  0  0  0  0  0  0  0
    7.0098    0.2505    0.0000 H   0  0  0  0  0  0  0  0  0  0  0  0
    8.3957   -1.4012    0.0000 H   0  0  0  0  0  0  0  0  0  0  0  0
    9.1807   -1.2628    0.0000 H   0  0  0  0  0  0  0  0  0  0  0  0
    5.5234   -2.5574    0.0000 H   0  0  0  0  0  0  0  0  0  0  0  0
    5.9219   -3.2477    0.0000 H   0  0  0  0  0  0  0  0  0  0  0  0
    8.0781   -3.2477    0.0000 H   0  0  0  0  0  0  0  0  0  0  0  0
    8.4766   -2.5574    0.0000 H   0  0  0  0  0  0  0  0  0  0  0  0
    8.6684    1.6423    0.0000 H   0  0  0  0  0  0  0  0  0  0  0  0
    7.8835    1.5038    0.0000 H   0  0  0  0  0  0  0  0  0  0  0  0
    9.7818   -0.7584    0.0000 H   0  0  0  0  0  0  0  0  0  0  0  0
   10.0544   -0.0095    0.0000 H   0  0  0  0  0  0  0  0  0  0  0  0
    6.6015   -3.6400    0.0000 H   0  0  0  0  0  0  0  0  0  0  0  0
    7.3985   -3.6400    0.0000 H   0  0  0  0  0  0  0  0  0  0  0  0
    9.9181    0.7633    0.0000 H   0  0  0  0  0  0  0  0  0  0  0  0
    9.4058    1.3739    0.0000 H   0  0  0  0  0  0  0  0  0  0  0  0
    5.5826    0.7790    0.0000 H   0  0  0  0  0  0  0  0  0  0  0  0
    4.8923    1.1776    0.0000 H   0  0  0  0  0  0  0  0  0  0  0  0
    3.4174    0.3549    0.0000 H   0  0  0  0  0  0  0  0  0  0  0  0
    4.1077   -0.0436    0.0000 H   0  0  0  0  0  0  0  0  0  0  0  0
    1.9174    1.2210    0.0000 H   0  0  0  0  0  0  0  0  0  0  0  0
    2.6077    0.8224    0.0000 H   0  0  0  0  0  0  0  0  0  0  0  0
    4.4750    1.9005    0.0000 H   0  0  0  0  0  0  0  0  0  0  0  0
    4.4750    2.6976    0.0000 H   0  0  0  0  0  0  0  0  0  0  0  0
    2.5369    2.6090    0.0000 H   0  0  0  0  0  0  0  0  0  0  0  0
    4.0369    3.4751    0.0000 H   0  0  0  0  0  0  0  0  0  0  0  0
    3.1900    3.7020    0.0000 H   0  0  0  0  0  0  0  0  0  0  0  0
    2.9631    2.8551    0.0000 H   0  0  0  0  0  0  0  0  0  0  0  0
    1.6900    2.8360    0.0000 H   0  0  0  0  0  0  0  0  0  0  0  0
    1.4631    1.9890    0.0000 H   0  0  0  0  0  0  0  0  0  0  0  0
  1 16  1  0  0  0  0 
  1 17  1  0  0  0  0 
  2 16  2  0  0  0  0 
  3 18  1  0  0  0  0 
  3 19  1  0  0  0  0 
  3 20  1  0  0  0  0 
  4  5  1  0  0  0  0 
  4  6  1  0  0  0  0 
  4  7  1  0  0  0  0 
  4 16  1  0  0  0  0 
  5  8  1  0  0  0  0 
  5  9  1  0  0  0  0 
  5 23  1  0  0  0  0 
  6 10  1  0  0  0  0 
  6 24  1  0  0  0  0 
  6 25  1  0  0  0  0 
  7 11  1  0  0  0  0 
  7 26  1  0  0  0  0 
  7 27  1  0  0  0  0 
  8 12  1  0  0  0  0 
  8 28  1  0  0  0  0 
  8 29  1  0  0  0  0 
  9 13  1  0  0  0  0 
  9 30  1  0  0  0  0 
  9 31  1  0  0  0  0 
 10 14  1  0  0  0  0 
 10 32  1  0  0  0  0 
 10 33  1  0  0  0  0 
 11 14  1  0  0  0  0 
 11 34  1  0  0  0  0 
 11 35  1  0  0  0  0 
 12 15  1  0  0  0  0 
 12 36  1  0  0  0  0 
 12 37  1  0  0  0  0 
 13 15  1  0  0  0  0 
 13 38  1  0  0  0  0 
 13 39  1  0  0  0  0 
 14 40  1  0  0  0  0 
 14 41  1  0  0  0  0 
 15 42  1  0  0  0  0 
 15 43  1  0  0  0  0 
 17 18  1  0  0  0  0 
 17 44  1  0  0  0  0 
 17 45  1  0  0  0  0 
 18 46  1  0  0  0  0 
 18 47  1  0  0  0  0 
 19 21  1  0  0  0  0 
 19 48  1  0  0  0  0 
 19 49  1  0  0  0  0 
 20 22  1  0  0  0  0 
 20 50  1  0  0  0  0 
 20 51  1  0  0  0  0 
 21 52  1  0  0  0  0 
 21 56  1  0  0  0  0 
 21 57  1  0  0  0  0 
 22 53  1  0  0  0  0 
 22 54  1  0  0  0  0 
 22 55  1  0  0  0  0 
M  END
> <cdk:Title>
3042

> <cdk:Remark>
null

> <PUBCHEM_COMPOUND_CID>
3042

> <PUBCHEM_COMPOUND_CANONICALIZED>
1

> <PUBCHEM_CACTVS_COMPLEXITY>
326

> <PUBCHEM_CACTVS_HBOND_ACCEPTOR>
3

> <PUBCHEM_CACTVS_HBOND_DONOR>
0

> <PUBCHEM_CACTVS_ROTATABLE_BOND>
8

> <PUBCHEM_CACTVS_SUBSKEYS>
AAADcfB6MAAAAAAAAAAAAAAAAAAAAAAAAAAwYAAAAAAAAAAAAAAAHgAAAAAADwDhgAYCCAMABAAIAACQCAAAAAAAAAAAAAEIAAACABIAAAADAAAEAACQAAGIyOCPgAAAAAAAAAAAAAAAAAAAAAAAAAAAAA==

> <PUBCHEM_IUPAC_OPENEYE_NAME>
2-(diethylamino)ethyl 1-cyclohexylcyclohexanecarboxylate

> <PUBCHEM_IUPAC_CAS_NAME>
1-cyclohexyl-1-cyclohexanecarboxylic acid 2-(diethylamino)ethyl ester

> <PUBCHEM_IUPAC_NAME>
2-(diethylamino)ethyl 1-cyclohexylcyclohexane-1-carboxylate

> <PUBCHEM_IUPAC_SYSTEMATIC_NAME>
2-(diethylamino)ethyl 1-cyclohexylcyclohexane-1-carboxylate

> <PUBCHEM_IUPAC_TRADITIONAL_NAME>
1-cyclohexylcyclohexanecarboxylic acid 2-(diethylamino)ethyl ester

> <PUBCHEM_IUPAC_INCHI>
InChI=1S/C19H35NO2/c1-3-20(4-2)15-16-22-18(21)19(13-9-6-10-14-19)17-11-7-5-8-12-17/h17H,3-16H2,1-2H3

> <PUBCHEM_IUPAC_INCHIKEY>
CURUTKGFNZGFSE-UHFFFAOYSA-N

> <PUBCHEM_XLOGP3_AA>
5.5

> <PUBCHEM_EXACT_MASS>
309.266779

> <PUBCHEM_MOLECULAR_FORMULA>
C19H35NO2

> <PUBCHEM_MOLECULAR_WEIGHT>
309.4867

> <PUBCHEM_OPENEYE_CAN_SMILES>
CCN(CC)CCOC(=O)C1(CCCCC1)C2CCCCC2

> <PUBCHEM_OPENEYE_ISO_SMILES>
CCN(CC)CCOC(=O)C1(CCCCC1)C2CCCCC2

> <PUBCHEM_CACTVS_TPSA>
29.5

> <PUBCHEM_MONOISOTOPIC_WEIGHT>
309.266779

> <PUBCHEM_TOTAL_CHARGE>
0

> <PUBCHEM_HEAVY_ATOM_COUNT>
22

> <PUBCHEM_ATOM_DEF_STEREO_COUNT>
0

> <PUBCHEM_ATOM_UDEF_STEREO_COUNT>
0

> <PUBCHEM_BOND_DEF_STEREO_COUNT>
0

> <PUBCHEM_BOND_UDEF_STEREO_COUNT>
0

> <PUBCHEM_ISOTOPIC_ATOM_COUNT>
0

> <PUBCHEM_COMPONENT_COUNT>
1

> <PUBCHEM_CACTVS_TAUTO_COUNT>
1

> <PUBCHEM_COORDINATE_TYPE>
1
5
255

> <DRUG_ID>
w185

> <DRUG_NAME>
Dicyclomine

$$$$
3033818
  CDK     0927151942
null
 44 48  0  0  0  0  0  0  0  0999 V2000
    7.5236    0.8727    0.0000 O   0  0  0  0  0  0  0  0  0  0  0  0
    2.0000    1.8514    0.0000 O   0  0  0  0  0  0  0  0  0  0  0  0
    7.6352   -0.8558    0.0000 O   0  0  0  0  0  0  0  0  0  0  0  0
    4.4587    2.0665    0.0000 N   0  0  0  0  0  0  0  0  0  0  0  0
   10.5708    0.7026    0.0000 N   0  0  0  0  0  0  0  0  0  0  0  0
    5.0204    1.6395    0.0000 C   0  0  1  0  0  0  0  0  0  0  0  0
    4.9979    0.5611    0.0000 C   0  0  2  0  0  0  0  0  0  0  0  0
    3.4027    0.5836    0.0000 C   0  0  0  0  0  0  0  0  0  0  0  0
    3.9419    1.2801    0.0000 C   0  0  0  0  0  0  0  0  0  0  0  0
    4.0028   -0.0073    0.0000 C   0  0  0  0  0  0  0  0  0  0  0  0
    5.9416    1.4823    0.0000 C   0  0  0  0  0  0  0  0  0  0  0  0
    6.0692    0.1193    0.0000 C   0  0  0  0  0  0  0  0  0  0  0  0
    6.5257    0.8083    0.0000 C   0  0  0  0  0  0  0  0  0  0  0  0
    3.7397    2.2687    0.0000 C   0  0  0  0  0  0  0  0  0  0  0  0
    2.9534    1.5497    0.0000 C   0  0  0  0  0  0  0  0  0  0  0  0
    8.0784    0.0407    0.0000 C   0  0  0  0  0  0  0  0  0  0  0  0
    9.0763    0.1051    0.0000 C   0  0  0  0  0  0  0  0  0  0  0  0
    9.7105   -0.6604    0.0000 C   0  0  0  0  0  0  0  0  0  0  0  0
    9.6069    0.9457    0.0000 C   0  0  0  0  0  0  0  0  0  0  0  0
   10.6391   -0.2892    0.0000 C   0  0  0  0  0  0  0  0  0  0  0  0
    9.5678   -1.6502    0.0000 C   0  0  0  0  0  0  0  0  0  0  0  0
   11.4248   -0.9077    0.0000 C   0  0  0  0  0  0  0  0  0  0  0  0
   10.3535   -2.2687    0.0000 C   0  0  0  0  0  0  0  0  0  0  0  0
   11.2821   -1.8974    0.0000 C   0  0  0  0  0  0  0  0  0  0  0  0
    5.3588    2.4193    0.0000 H   0  0  0  0  0  0  0  0  0  0  0  0
    5.0522   -0.2871    0.0000 H   0  0  0  0  0  0  0  0  0  0  0  0
    2.8960    0.2263    0.0000 H   0  0  0  0  0  0  0  0  0  0  0  0
    3.9451    1.9001    0.0000 H   0  0  0  0  0  0  0  0  0  0  0  0
    4.3006    0.7744    0.0000 H   0  0  0  0  0  0  0  0  0  0  0  0
    3.5292   -0.4076    0.0000 H   0  0  0  0  0  0  0  0  0  0  0  0
    4.3581   -0.5154    0.0000 H   0  0  0  0  0  0  0  0  0  0  0  0
    6.5078    1.7350    0.0000 H   0  0  0  0  0  0  0  0  0  0  0  0
    5.8641    2.0975    0.0000 H   0  0  0  0  0  0  0  0  0  0  0  0
    5.7962   -0.4374    0.0000 H   0  0  0  0  0  0  0  0  0  0  0  0
    6.6071   -0.1891    0.0000 H   0  0  0  0  0  0  0  0  0  0  0  0
    6.7650    1.3803    0.0000 H   0  0  0  0  0  0  0  0  0  0  0  0
    4.0147    2.8244    0.0000 H   0  0  0  0  0  0  0  0  0  0  0  0
    3.2442    2.6413    0.0000 H   0  0  0  0  0  0  0  0  0  0  0  0
    9.3767    1.5214    0.0000 H   0  0  0  0  0  0  0  0  0  0  0  0
   11.0465    1.1002    0.0000 H   0  0  0  0  0  0  0  0  0  0  0  0
    8.9921   -1.8803    0.0000 H   0  0  0  0  0  0  0  0  0  0  0  0
   12.0005   -0.6775    0.0000 H   0  0  0  0  0  0  0  0  0  0  0  0
   10.2650   -2.8823    0.0000 H   0  0  0  0  0  0  0  0  0  0  0  0
   11.7692   -2.2809    0.0000 H   0  0  0  0  0  0  0  0  0  0  0  0
  1 13  1  0  0  0  0 
  1 16  1  0  0  0  0 
  2 15  2  0  0  0  0 
  3 16  2  0  0  0  0 
  4  6  1  0  0  0  0 
  4  7  1  0  0  0  0 
  4 14  1  0  0  0  0 
  5 19  1  0  0  0  0 
  5 20  1  0  0  0  0 
  5 40  1  0  0  0  0 
  6  9  1  0  0  0  0 
  6 11  1  0  0  0  0 
  6 25  1  1  0  0  0 
  7 10  1  0  0  0  0 
  7 12  1  0  0  0  0 
  7 26  1  6  0  0  0 
  8  9  1  0  0  0  0 
  8 10  1  0  0  0  0 
  8 15  1  0  0  0  0 
  8 27  1  0  0  0  0 
  9 28  1  0  0  0  0 
  9 29  1  0  0  0  0 
 10 30  1  0  0  0  0 
 10 31  1  0  0  0  0 
 11 13  1  0  0  0  0 
 11 32  1  0  0  0  0 
 11 33  1  0  0  0  0 
 12 13  1  0  0  0  0 
 12 34  1  0  0  0  0 
 12 35  1  0  0  0  0 
 13 36  1  0  0  0  0 
 14 15  1  0  0  0  0 
 14 37  1  0  0  0  0 
 14 38  1  0  0  0  0 
 16 17  1  0  0  0  0 
 17 18  1  0  0  0  0 
 17 19  2  0  0  0  0 
 18 20  1  0  0  0  0 
 18 21  2  0  0  0  0 
 19 39  1  0  0  0  0 
 20 22  2  0  0  0  0 
 21 23  1  0  0  0  0 
 21 41  1  0  0  0  0 
 22 24  1  0  0  0  0 
 22 42  1  0  0  0  0 
 23 24  2  0  0  0  0 
 23 43  1  0  0  0  0 
 24 44  1  0  0  0  0 
M  END
> <cdk:Title>
3033818

> <cdk:Remark>
null

> <PUBCHEM_COMPOUND_CID>
3033818

> <PUBCHEM_COMPOUND_CANONICALIZED>
1

> <PUBCHEM_CACTVS_COMPLEXITY>
535

> <PUBCHEM_CACTVS_HBOND_ACCEPTOR>
4

> <PUBCHEM_CACTVS_HBOND_DONOR>
1

> <PUBCHEM_CACTVS_ROTATABLE_BOND>
3

> <PUBCHEM_CACTVS_SUBSKEYS>
AAADceB7MAAAAAAAAAAAAAAAAAAAAWAAAAA8WLFiAAAYAFgB8AAAHgAQAAAADTzhngY8yPPJlACoA7T3TACCgCA1AiAI2aG4bNgIJvrAtbmGMYhm0AHI6ce8yPCOgAAAAAACAAAAAAAAAAQAAAAAAAAAAA==

> <PUBCHEM_IUPAC_INCHI>
InChI=1S/C19H20N2O3/c22-18-10-21-12-5-11(18)6-13(21)8-14(7-12)24-19(23)16-9-20-17-4-2-1-3-15(16)17/h1-4,9,11-14,20H,5-8,10H2/t11?,12-,13+,14?

> <PUBCHEM_IUPAC_INCHIKEY>
UKTAZPQNNNJVKR-AKJUYKBHSA-N

> <PUBCHEM_XLOGP3>
3.4

> <PUBCHEM_EXACT_MASS>
324.147393

> <PUBCHEM_MOLECULAR_FORMULA>
C19H20N2O3

> <PUBCHEM_MOLECULAR_WEIGHT>
324.3737

> <PUBCHEM_OPENEYE_CAN_SMILES>
C1C2CC3CC(CC1N3CC2=O)OC(=O)C4=CNC5=CC=CC=C54

> <PUBCHEM_OPENEYE_ISO_SMILES>
C1[C@@H]2CC(C[C@H]3N2CC(=O)C1C3)OC(=O)C4=CNC5=CC=CC=C54

> <PUBCHEM_CACTVS_TPSA>
62.4

> <PUBCHEM_MONOISOTOPIC_WEIGHT>
324.147393

> <PUBCHEM_TOTAL_CHARGE>
0

> <PUBCHEM_HEAVY_ATOM_COUNT>
24

> <PUBCHEM_ATOM_DEF_STEREO_COUNT>
2

> <PUBCHEM_ATOM_UDEF_STEREO_COUNT>
0

> <PUBCHEM_BOND_DEF_STEREO_COUNT>
0

> <PUBCHEM_BOND_UDEF_STEREO_COUNT>
0

> <PUBCHEM_ISOTOPIC_ATOM_COUNT>
0

> <PUBCHEM_COMPONENT_COUNT>
1

> <PUBCHEM_CACTVS_TAUTO_COUNT>
16

> <PUBCHEM_COORDINATE_TYPE>
1
5
255

> <PUBCHEM_BONDANNOTATIONS>
17  18  8
17  19  8
18  20  8
18  21  8
20  22  8
21  23  8
22  24  8
23  24  8
5  19  8
5  20  8
6  25  5
7  26  6

> <DRUG_ID>
w186

> <DRUG_NAME>
Dolasetron

$$$$
7029
  CDK     0927151942
null
 34 34  0  0  0  0  0  0  0  0999 V2000
    2.0000    0.5000    0.0000 O   0  0  0  0  0  0  0  0  0  0  0  0
    3.7320    1.5000    0.0000 N   0  0  0  0  0  0  0  0  0  0  0  0
    3.7320    0.5000    0.0000 C   0  0  3  0  0  0  0  0  0  0  0  0
    4.5981    2.0000    0.0000 C   0  0  0  0  0  0  0  0  0  0  0  0
    2.8660    2.0000    0.0000 C   0  0  0  0  0  0  0  0  0  0  0  0
    2.8660    0.0000    0.0000 C   0  0  0  0  0  0  0  0  0  0  0  0
    4.5981    0.0000    0.0000 C   0  0  0  0  0  0  0  0  0  0  0  0
    4.5981    3.0000    0.0000 C   0  0  0  0  0  0  0  0  0  0  0  0
    2.8660    3.0000    0.0000 C   0  0  0  0  0  0  0  0  0  0  0  0
    2.8660   -1.0000    0.0000 C   0  0  0  0  0  0  0  0  0  0  0  0
    2.0000   -1.5000    0.0000 C   0  0  0  0  0  0  0  0  0  0  0  0
    3.7320   -1.5000    0.0000 C   0  0  0  0  0  0  0  0  0  0  0  0
    2.0000   -2.5000    0.0000 C   0  0  0  0  0  0  0  0  0  0  0  0
    3.7320   -2.5000    0.0000 C   0  0  0  0  0  0  0  0  0  0  0  0
    2.8660   -3.0000    0.0000 C   0  0  0  0  0  0  0  0  0  0  0  0
    4.2690    0.8100    0.0000 H   0  0  0  0  0  0  0  0  0  0  0  0
    2.2554    2.1077    0.0000 H   0  0  0  0  0  0  0  0  0  0  0  0
    2.6540    1.4174    0.0000 H   0  0  0  0  0  0  0  0  0  0  0  0
    4.8101    1.4174    0.0000 H   0  0  0  0  0  0  0  0  0  0  0  0
    5.2087    2.1077    0.0000 H   0  0  0  0  0  0  0  0  0  0  0  0
    4.2881   -0.5369    0.0000 H   0  0  0  0  0  0  0  0  0  0  0  0
    5.1350   -0.3100    0.0000 H   0  0  0  0  0  0  0  0  0  0  0  0
    4.9081    0.5369    0.0000 H   0  0  0  0  0  0  0  0  0  0  0  0
    5.2181    3.0000    0.0000 H   0  0  0  0  0  0  0  0  0  0  0  0
    3.4860    3.0000    0.0000 H   0  0  0  0  0  0  0  0  0  0  0  0
    2.8660    3.6200    0.0000 H   0  0  0  0  0  0  0  0  0  0  0  0
    2.2460    3.0000    0.0000 H   0  0  0  0  0  0  0  0  0  0  0  0
    4.5981    3.6200    0.0000 H   0  0  0  0  0  0  0  0  0  0  0  0
    3.9781    3.0000    0.0000 H   0  0  0  0  0  0  0  0  0  0  0  0
    1.4631   -1.1900    0.0000 H   0  0  0  0  0  0  0  0  0  0  0  0
    4.2690   -1.1900    0.0000 H   0  0  0  0  0  0  0  0  0  0  0  0
    1.4631   -2.8100    0.0000 H   0  0  0  0  0  0  0  0  0  0  0  0
    4.2690   -2.8100    0.0000 H   0  0  0  0  0  0  0  0  0  0  0  0
    2.8660   -3.6200    0.0000 H   0  0  0  0  0  0  0  0  0  0  0  0
  1  6  2  0  0  0  0 
  2  3  1  0  0  0  0 
  2  4  1  0  0  0  0 
  2  5  1  0  0  0  0 
  3  6  1  0  0  0  0 
  3  7  1  0  0  0  0 
  3 16  1  0  0  0  0 
  4  8  1  0  0  0  0 
  4 19  1  0  0  0  0 
  4 20  1  0  0  0  0 
  5  9  1  0  0  0  0 
  5 17  1  0  0  0  0 
  5 18  1  0  0  0  0 
  6 10  1  0  0  0  0 
  7 21  1  0  0  0  0 
  7 22  1  0  0  0  0 
  7 23  1  0  0  0  0 
  8 24  1  0  0  0  0 
  8 28  1  0  0  0  0 
  8 29  1  0  0  0  0 
  9 25  1  0  0  0  0 
  9 26  1  0  0  0  0 
  9 27  1  0  0  0  0 
 10 11  2  0  0  0  0 
 10 12  1  0  0  0  0 
 11 13  1  0  0  0  0 
 11 30  1  0  0  0  0 
 12 14  2  0  0  0  0 
 12 31  1  0  0  0  0 
 13 15  2  0  0  0  0 
 13 32  1  0  0  0  0 
 14 15  1  0  0  0  0 
 14 33  1  0  0  0  0 
 15 34  1  0  0  0  0 
M  END
> <cdk:Title>
7029

> <cdk:Remark>
null

> <PUBCHEM_COMPOUND_CID>
7029

> <PUBCHEM_COMPOUND_CANONICALIZED>
1

> <PUBCHEM_CACTVS_COMPLEXITY>
193

> <PUBCHEM_CACTVS_HBOND_ACCEPTOR>
2

> <PUBCHEM_CACTVS_HBOND_DONOR>
0

> <PUBCHEM_CACTVS_ROTATABLE_BOND>
5

> <PUBCHEM_CACTVS_SUBSKEYS>
AAADceByIAAAAAAAAAAAAAAAAAAAAAAAAAAwAAAAAAAAAAABAAAAHgAAAAAADCzBmAQyAIMAAACIAqBSAAACAAAkAAAIiAGIAMgIIDKAlTGEIQAggACIiYcYiICOAAAAAAAAAAAAAAAAAAAAAAAAAAAAAA==

> <PUBCHEM_IUPAC_OPENEYE_NAME>
2-(diethylamino)-1-phenyl-propan-1-one

> <PUBCHEM_IUPAC_CAS_NAME>
2-(diethylamino)-1-phenyl-1-propanone

> <PUBCHEM_IUPAC_NAME>
2-(diethylamino)-1-phenylpropan-1-one

> <PUBCHEM_IUPAC_SYSTEMATIC_NAME>
2-(diethylamino)-1-phenyl-propan-1-one

> <PUBCHEM_IUPAC_TRADITIONAL_NAME>
2-(diethylamino)-1-phenyl-propan-1-one

> <PUBCHEM_IUPAC_INCHI>
InChI=1S/C13H19NO/c1-4-14(5-2)11(3)13(15)12-9-7-6-8-10-12/h6-11H,4-5H2,1-3H3

> <PUBCHEM_IUPAC_INCHIKEY>
XXEPPPIWZFICOJ-UHFFFAOYSA-N

> <PUBCHEM_XLOGP3_AA>
2.8

> <PUBCHEM_EXACT_MASS>
205.146664

> <PUBCHEM_MOLECULAR_FORMULA>
C13H19NO

> <PUBCHEM_MOLECULAR_WEIGHT>
205.29606

> <PUBCHEM_OPENEYE_CAN_SMILES>
CCN(CC)C(C)C(=O)C1=CC=CC=C1

> <PUBCHEM_OPENEYE_ISO_SMILES>
CCN(CC)C(C)C(=O)C1=CC=CC=C1

> <PUBCHEM_CACTVS_TPSA>
20.3

> <PUBCHEM_MONOISOTOPIC_WEIGHT>
205.146664

> <PUBCHEM_TOTAL_CHARGE>
0

> <PUBCHEM_HEAVY_ATOM_COUNT>
15

> <PUBCHEM_ATOM_DEF_STEREO_COUNT>
0

> <PUBCHEM_ATOM_UDEF_STEREO_COUNT>
1

> <PUBCHEM_BOND_DEF_STEREO_COUNT>
0

> <PUBCHEM_BOND_UDEF_STEREO_COUNT>
0

> <PUBCHEM_ISOTOPIC_ATOM_COUNT>
0

> <PUBCHEM_COMPONENT_COUNT>
1

> <PUBCHEM_CACTVS_TAUTO_COUNT>
2

> <PUBCHEM_COORDINATE_TYPE>
1
5
255

> <PUBCHEM_BONDANNOTATIONS>
10  11  8
10  12  8
11  13  8
12  14  8
13  15  8
14  15  8
3  7  3

> <DRUG_ID>
w187

> <DRUG_NAME>
Amfepramone Hydrochloride

$$$$
2318
  CDK     0927151942
null
 45 46  0  0  0  0  0  0  0  0999 V2000
    7.1962    5.7500    0.0000 F   0  0  0  0  0  0  0  0  0  0  0  0
    8.1962    4.7500    0.0000 F   0  0  0  0  0  0  0  0  0  0  0  0
    6.1962    4.7500    0.0000 F   0  0  0  0  0  0  0  0  0  0  0  0
    3.7320   -2.2500    0.0000 O   0  0  0  0  0  0  0  0  0  0  0  0
    2.0000   -2.2500    0.0000 O   0  0  0  0  0  0  0  0  0  0  0  0
    4.5981    0.2500    0.0000 N   0  0  0  0  0  0  0  0  0  0  0  0
    5.4641    0.7500    0.0000 C   0  0  3  0  0  0  0  0  0  0  0  0
    5.4641    1.7500    0.0000 C   0  0  0  0  0  0  0  0  0  0  0  0
    6.3301    2.2500    0.0000 C   0  0  0  0  0  0  0  0  0  0  0  0
    6.3301    0.2500    0.0000 C   0  0  0  0  0  0  0  0  0  0  0  0
    4.5981   -0.7500    0.0000 C   0  0  0  0  0  0  0  0  0  0  0  0
    6.3301    3.2500    0.0000 C   0  0  0  0  0  0  0  0  0  0  0  0
    7.1962    1.7500    0.0000 C   0  0  0  0  0  0  0  0  0  0  0  0
    3.7320   -1.2500    0.0000 C   0  0  0  0  0  0  0  0  0  0  0  0
    7.1962    3.7500    0.0000 C   0  0  0  0  0  0  0  0  0  0  0  0
    8.0622    2.2500    0.0000 C   0  0  0  0  0  0  0  0  0  0  0  0
    8.0622    3.2500    0.0000 C   0  0  0  0  0  0  0  0  0  0  0  0
    7.1962    4.7500    0.0000 C   0  0  0  0  0  0  0  0  0  0  0  0
    2.8660   -2.7500    0.0000 C   0  0  0  0  0  0  0  0  0  0  0  0
    2.8660   -3.7500    0.0000 C   0  0  0  0  0  0  0  0  0  0  0  0
    2.0000   -4.2500    0.0000 C   0  0  0  0  0  0  0  0  0  0  0  0
    3.7320   -4.2500    0.0000 C   0  0  0  0  0  0  0  0  0  0  0  0
    2.0000   -5.2500    0.0000 C   0  0  0  0  0  0  0  0  0  0  0  0
    3.7320   -5.2500    0.0000 C   0  0  0  0  0  0  0  0  0  0  0  0
    2.8660   -5.7500    0.0000 C   0  0  0  0  0  0  0  0  0  0  0  0
    5.4641    0.1300    0.0000 H   0  0  0  0  0  0  0  0  0  0  0  0
    5.2520    2.3326    0.0000 H   0  0  0  0  0  0  0  0  0  0  0  0
    4.8535    1.6423    0.0000 H   0  0  0  0  0  0  0  0  0  0  0  0
    4.0611    0.5600    0.0000 H   0  0  0  0  0  0  0  0  0  0  0  0
    6.0201   -0.2869    0.0000 H   0  0  0  0  0  0  0  0  0  0  0  0
    6.8671   -0.0600    0.0000 H   0  0  0  0  0  0  0  0  0  0  0  0
    6.6401    0.7869    0.0000 H   0  0  0  0  0  0  0  0  0  0  0  0
    4.8101   -1.3326    0.0000 H   0  0  0  0  0  0  0  0  0  0  0  0
    5.2087   -0.6423    0.0000 H   0  0  0  0  0  0  0  0  0  0  0  0
    5.7932    3.5600    0.0000 H   0  0  0  0  0  0  0  0  0  0  0  0
    7.1962    1.1300    0.0000 H   0  0  0  0  0  0  0  0  0  0  0  0
    3.5200   -0.6674    0.0000 H   0  0  0  0  0  0  0  0  0  0  0  0
    3.1215   -1.3577    0.0000 H   0  0  0  0  0  0  0  0  0  0  0  0
    8.5991    1.9400    0.0000 H   0  0  0  0  0  0  0  0  0  0  0  0
    8.5991    3.5600    0.0000 H   0  0  0  0  0  0  0  0  0  0  0  0
    1.4631   -3.9400    0.0000 H   0  0  0  0  0  0  0  0  0  0  0  0
    4.2690   -3.9400    0.0000 H   0  0  0  0  0  0  0  0  0  0  0  0
    1.4631   -5.5600    0.0000 H   0  0  0  0  0  0  0  0  0  0  0  0
    4.2690   -5.5600    0.0000 H   0  0  0  0  0  0  0  0  0  0  0  0
    2.8660   -6.3700    0.0000 H   0  0  0  0  0  0  0  0  0  0  0  0
  1 18  1  0  0  0  0 
  2 18  1  0  0  0  0 
  3 18  1  0  0  0  0 
  4 14  1  0  0  0  0 
  4 19  1  0  0  0  0 
  5 19  2  0  0  0  0 
  6  7  1  0  0  0  0 
  6 11  1  0  0  0  0 
  6 29  1  0  0  0  0 
  7  8  1  0  0  0  0 
  7 10  1  0  0  0  0 
  7 26  1  0  0  0  0 
  8  9  1  0  0  0  0 
  8 27  1  0  0  0  0 
  8 28  1  0  0  0  0 
  9 12  2  0  0  0  0 
  9 13  1  0  0  0  0 
 10 30  1  0  0  0  0 
 10 31  1  0  0  0  0 
 10 32  1  0  0  0  0 
 11 14  1  0  0  0  0 
 11 33  1  0  0  0  0 
 11 34  1  0  0  0  0 
 12 15  1  0  0  0  0 
 12 35  1  0  0  0  0 
 13 16  2  0  0  0  0 
 13 36  1  0  0  0  0 
 14 37  1  0  0  0  0 
 14 38  1  0  0  0  0 
 15 17  2  0  0  0  0 
 15 18  1  0  0  0  0 
 16 17  1  0  0  0  0 
 16 39  1  0  0  0  0 
 17 40  1  0  0  0  0 
 19 20  1  0  0  0  0 
 20 21  2  0  0  0  0 
 20 22  1  0  0  0  0 
 21 23  1  0  0  0  0 
 21 41  1  0  0  0  0 
 22 24  2  0  0  0  0 
 22 42  1  0  0  0  0 
 23 25  2  0  0  0  0 
 23 43  1  0  0  0  0 
 24 25  1  0  0  0  0 
 24 44  1  0  0  0  0 
 25 45  1  0  0  0  0 
M  END
> <cdk:Title>
2318

> <cdk:Remark>
null

> <PUBCHEM_COMPOUND_CID>
2318

> <PUBCHEM_COMPOUND_CANONICALIZED>
1

> <PUBCHEM_CACTVS_COMPLEXITY>
408

> <PUBCHEM_CACTVS_HBOND_ACCEPTOR>
6

> <PUBCHEM_CACTVS_HBOND_DONOR>
1

> <PUBCHEM_CACTVS_ROTATABLE_BOND>
8

> <PUBCHEM_CACTVS_SUBSKEYS>
AAADceB6MYAAAAAAAAAAAAAAAAAAAAAAAAAwYAAAAAAAAAABQAAAHwAQAAAADCjhmBYyCILABACIAiDSCAACAAAkAAAIiIEICMgKJjKAtRmHMQAk0AGYqYeYyOCOAAACAAAAAAAAAAQAAAAAAAAAAAAAAA==

> <PUBCHEM_IUPAC_OPENEYE_NAME>
2-[[1-methyl-2-[3-(trifluoromethyl)phenyl]ethyl]amino]ethyl benzoate

> <PUBCHEM_IUPAC_CAS_NAME>
benzoic acid 2-[1-[3-(trifluoromethyl)phenyl]propan-2-ylamino]ethyl ester

> <PUBCHEM_IUPAC_NAME>
2-[1-[3-(trifluoromethyl)phenyl]propan-2-ylamino]ethyl benzoate

> <PUBCHEM_IUPAC_SYSTEMATIC_NAME>
2-[1-[3-(trifluoromethyl)phenyl]propan-2-ylamino]ethyl benzoate

> <PUBCHEM_IUPAC_TRADITIONAL_NAME>
benzoic acid 2-[[1-methyl-2-[3-(trifluoromethyl)phenyl]ethyl]amino]ethyl ester

> <PUBCHEM_IUPAC_INCHI>
InChI=1S/C19H20F3NO2/c1-14(12-15-6-5-9-17(13-15)19(20,21)22)23-10-11-25-18(24)16-7-3-2-4-8-16/h2-9,13-14,23H,10-12H2,1H3

> <PUBCHEM_IUPAC_INCHIKEY>
CJAVTWRYCDNHSM-UHFFFAOYSA-N

> <PUBCHEM_XLOGP3_AA>
4.6

> <PUBCHEM_EXACT_MASS>
351.144614

> <PUBCHEM_MOLECULAR_FORMULA>
C19H20F3NO2

> <PUBCHEM_MOLECULAR_WEIGHT>
351.36281

> <PUBCHEM_OPENEYE_CAN_SMILES>
CC(CC1=CC(=CC=C1)C(F)(F)F)NCCOC(=O)C2=CC=CC=C2

> <PUBCHEM_OPENEYE_ISO_SMILES>
CC(CC1=CC(=CC=C1)C(F)(F)F)NCCOC(=O)C2=CC=CC=C2

> <PUBCHEM_CACTVS_TPSA>
38.3

> <PUBCHEM_MONOISOTOPIC_WEIGHT>
351.144614

> <PUBCHEM_TOTAL_CHARGE>
0

> <PUBCHEM_HEAVY_ATOM_COUNT>
25

> <PUBCHEM_ATOM_DEF_STEREO_COUNT>
0

> <PUBCHEM_ATOM_UDEF_STEREO_COUNT>
1

> <PUBCHEM_BOND_DEF_STEREO_COUNT>
0

> <PUBCHEM_BOND_UDEF_STEREO_COUNT>
0

> <PUBCHEM_ISOTOPIC_ATOM_COUNT>
0

> <PUBCHEM_COMPONENT_COUNT>
1

> <PUBCHEM_CACTVS_TAUTO_COUNT>
1

> <PUBCHEM_COORDINATE_TYPE>
1
5
255

> <PUBCHEM_BONDANNOTATIONS>
12  15  8
13  16  8
15  17  8
16  17  8
20  21  8
20  22  8
21  23  8
22  24  8
23  25  8
24  25  8
7  10  3
9  12  8
9  13  8

> <DRUG_ID>
w188

> <DRUG_NAME>
Benfluorex

$$$$
14985
  CDK     0927151942
null
 81 82  0  0  0  0  0  0  0  0999 V2000
    6.0290   -2.7889    0.0000 O   0  0  0  0  0  0  0  0  0  0  0  0
    2.5369   -0.7543    0.0000 O   0  0  0  0  0  0  0  0  0  0  0  0
    6.9350   -2.2751    0.0000 C   0  0  2  0  0  0  0  0  0  0  0  0
    7.9350   -2.2790    0.0000 C   0  0  0  0  0  0  0  0  0  0  0  0
    6.9350   -1.2335    0.0000 C   0  0  0  0  0  0  0  0  0  0  0  0
    8.4384   -1.4149    0.0000 C   0  0  0  0  0  0  0  0  0  0  0  0
    9.9417   -0.5546    0.0000 C   0  0  1  0  0  0  0  0  0  0  0  0
    9.4383   -1.4187    0.0000 C   0  0  0  0  0  0  0  0  0  0  0  0
    6.0290   -0.7196    0.0000 C   0  0  0  0  0  0  0  0  0  0  0  0
   10.9417   -0.5585    0.0000 C   0  0  0  0  0  0  0  0  0  0  0  0
    7.4317   -3.1430    0.0000 C   0  0  0  0  0  0  0  0  0  0  0  0
    5.1350   -1.2543    0.0000 C   0  0  0  0  0  0  0  0  0  0  0  0
   11.4450    0.3056    0.0000 C   0  0  0  0  0  0  0  0  0  0  0  0
    5.1350   -2.2543    0.0000 C   0  0  0  0  0  0  0  0  0  0  0  0
   12.4450    0.3018    0.0000 C   0  0  0  0  0  0  0  0  0  0  0  0
   12.9483    1.1659    0.0000 C   0  0  1  0  0  0  0  0  0  0  0  0
    9.4450    0.3133    0.0000 C   0  0  0  0  0  0  0  0  0  0  0  0
   13.9483    1.1620    0.0000 C   0  0  0  0  0  0  0  0  0  0  0  0
    4.2690   -0.7543    0.0000 C   0  0  0  0  0  0  0  0  0  0  0  0
    4.2690   -2.7543    0.0000 C   0  0  0  0  0  0  0  0  0  0  0  0
   14.4517    2.0261    0.0000 C   0  0  0  0  0  0  0  0  0  0  0  0
    3.4030   -2.2543    0.0000 C   0  0  0  0  0  0  0  0  0  0  0  0
   12.4517    2.0338    0.0000 C   0  0  0  0  0  0  0  0  0  0  0  0
    3.4030   -1.2543    0.0000 C   0  0  0  0  0  0  0  0  0  0  0  0
   15.4516    2.0222    0.0000 C   0  0  0  0  0  0  0  0  0  0  0  0
   15.9550    2.8863    0.0000 C   0  0  0  0  0  0  0  0  0  0  0  0
    4.2690    0.2457    0.0000 C   0  0  0  0  0  0  0  0  0  0  0  0
    4.2690   -3.7543    0.0000 C   0  0  0  0  0  0  0  0  0  0  0  0
    2.5369   -2.7543    0.0000 C   0  0  0  0  0  0  0  0  0  0  0  0
   16.9550    2.8825    0.0000 C   0  0  0  0  0  0  0  0  0  0  0  0
   15.4583    3.7543    0.0000 C   0  0  0  0  0  0  0  0  0  0  0  0
    7.8250   -2.8891    0.0000 H   0  0  0  0  0  0  0  0  0  0  0  0
    8.5168   -2.4932    0.0000 H   0  0  0  0  0  0  0  0  0  0  0  0
    7.5459   -1.3396    0.0000 H   0  0  0  0  0  0  0  0  0  0  0  0
    7.1441   -0.6498    0.0000 H   0  0  0  0  0  0  0  0  0  0  0  0
    8.5484   -0.8047    0.0000 H   0  0  0  0  0  0  0  0  0  0  0  0
    7.8566   -1.2006    0.0000 H   0  0  0  0  0  0  0  0  0  0  0  0
    9.3217   -0.5522    0.0000 H   0  0  0  0  0  0  0  0  0  0  0  0
    9.3283   -2.0289    0.0000 H   0  0  0  0  0  0  0  0  0  0  0  0
   10.0201   -1.6330    0.0000 H   0  0  0  0  0  0  0  0  0  0  0  0
    6.4226   -0.2406    0.0000 H   0  0  0  0  0  0  0  0  0  0  0  0
    5.6244   -0.2498    0.0000 H   0  0  0  0  0  0  0  0  0  0  0  0
   10.8317   -1.1686    0.0000 H   0  0  0  0  0  0  0  0  0  0  0  0
   11.5235   -0.7728    0.0000 H   0  0  0  0  0  0  0  0  0  0  0  0
    6.8936   -3.4510    0.0000 H   0  0  0  0  0  0  0  0  0  0  0  0
    7.7396   -3.6812    0.0000 H   0  0  0  0  0  0  0  0  0  0  0  0
    7.9698   -2.8351    0.0000 H   0  0  0  0  0  0  0  0  0  0  0  0
   11.5550    0.9158    0.0000 H   0  0  0  0  0  0  0  0  0  0  0  0
   10.8632    0.5199    0.0000 H   0  0  0  0  0  0  0  0  0  0  0  0
   12.3350   -0.3084    0.0000 H   0  0  0  0  0  0  0  0  0  0  0  0
   13.0268    0.0875    0.0000 H   0  0  0  0  0  0  0  0  0  0  0  0
   13.2604    1.7016    0.0000 H   0  0  0  0  0  0  0  0  0  0  0  0
    9.9831    0.6213    0.0000 H   0  0  0  0  0  0  0  0  0  0  0  0
    9.1371    0.8515    0.0000 H   0  0  0  0  0  0  0  0  0  0  0  0
    8.9069    0.0054    0.0000 H   0  0  0  0  0  0  0  0  0  0  0  0
   13.8383    0.5518    0.0000 H   0  0  0  0  0  0  0  0  0  0  0  0
   14.5301    0.9477    0.0000 H   0  0  0  0  0  0  0  0  0  0  0  0
   14.5617    2.6362    0.0000 H   0  0  0  0  0  0  0  0  0  0  0  0
   13.8699    2.2404    0.0000 H   0  0  0  0  0  0  0  0  0  0  0  0
   12.9898    2.3417    0.0000 H   0  0  0  0  0  0  0  0  0  0  0  0
   12.1437    2.5719    0.0000 H   0  0  0  0  0  0  0  0  0  0  0  0
   11.9135    1.7259    0.0000 H   0  0  0  0  0  0  0  0  0  0  0  0
   15.3416    1.4121    0.0000 H   0  0  0  0  0  0  0  0  0  0  0  0
   16.0334    1.8079    0.0000 H   0  0  0  0  0  0  0  0  0  0  0  0
   16.2629    2.3482    0.0000 H   0  0  0  0  0  0  0  0  0  0  0  0
    4.8890    0.2457    0.0000 H   0  0  0  0  0  0  0  0  0  0  0  0
    4.2690    0.8657    0.0000 H   0  0  0  0  0  0  0  0  0  0  0  0
    3.6490    0.2457    0.0000 H   0  0  0  0  0  0  0  0  0  0  0  0
    3.6490   -3.7543    0.0000 H   0  0  0  0  0  0  0  0  0  0  0  0
    4.2690   -4.3743    0.0000 H   0  0  0  0  0  0  0  0  0  0  0  0
    4.8890   -3.7543    0.0000 H   0  0  0  0  0  0  0  0  0  0  0  0
    2.2269   -2.2173    0.0000 H   0  0  0  0  0  0  0  0  0  0  0  0
    2.0000   -3.0643    0.0000 H   0  0  0  0  0  0  0  0  0  0  0  0
    2.8469   -3.2912    0.0000 H   0  0  0  0  0  0  0  0  0  0  0  0
   16.9526    2.2625    0.0000 H   0  0  0  0  0  0  0  0  0  0  0  0
   17.5750    2.8801    0.0000 H   0  0  0  0  0  0  0  0  0  0  0  0
   16.9574    3.5025    0.0000 H   0  0  0  0  0  0  0  0  0  0  0  0
   15.9965    4.0622    0.0000 H   0  0  0  0  0  0  0  0  0  0  0  0
   15.1504    4.2924    0.0000 H   0  0  0  0  0  0  0  0  0  0  0  0
   14.9202    3.4464    0.0000 H   0  0  0  0  0  0  0  0  0  0  0  0
    2.0000   -1.0643    0.0000 H   0  0  0  0  0  0  0  0  0  0  0  0
  1  3  1  0  0  0  0 
  1 14  1  0  0  0  0 
  2 24  1  0  0  0  0 
  2 81  1  0  0  0  0 
  3  4  1  0  0  0  0 
  3  5  1  0  0  0  0 
  3 11  1  6  0  0  0 
  4  6  1  0  0  0  0 
  4 32  1  0  0  0  0 
  4 33  1  0  0  0  0 
  5  9  1  0  0  0  0 
  5 34  1  0  0  0  0 
  5 35  1  0  0  0  0 
  6  8  1  0  0  0  0 
  6 36  1  0  0  0  0 
  6 37  1  0  0  0  0 
  7  8  1  0  0  0  0 
  7 10  1  0  0  0  0 
  7 17  1  6  0  0  0 
  7 38  1  0  0  0  0 
  8 39  1  0  0  0  0 
  8 40  1  0  0  0  0 
  9 12  1  0  0  0  0 
  9 41  1  0  0  0  0 
  9 42  1  0  0  0  0 
 10 13  1  0  0  0  0 
 10 43  1  0  0  0  0 
 10 44  1  0  0  0  0 
 11 45  1  0  0  0  0 
 11 46  1  0  0  0  0 
 11 47  1  0  0  0  0 
 12 14  2  0  0  0  0 
 12 19  1  0  0  0  0 
 13 15  1  0  0  0  0 
 13 48  1  0  0  0  0 
 13 49  1  0  0  0  0 
 14 20  1  0  0  0  0 
 15 16  1  0  0  0  0 
 15 50  1  0  0  0  0 
 15 51  1  0  0  0  0 
 16 18  1  0  0  0  0 
 16 23  1  6  0  0  0 
 16 52  1  0  0  0  0 
 17 53  1  0  0  0  0 
 17 54  1  0  0  0  0 
 17 55  1  0  0  0  0 
 18 21  1  0  0  0  0 
 18 56  1  0  0  0  0 
 18 57  1  0  0  0  0 
 19 24  2  0  0  0  0 
 19 27  1  0  0  0  0 
 20 22  2  0  0  0  0 
 20 28  1  0  0  0  0 
 21 25  1  0  0  0  0 
 21 58  1  0  0  0  0 
 21 59  1  0  0  0  0 
 22 24  1  0  0  0  0 
 22 29  1  0  0  0  0 
 23 60  1  0  0  0  0 
 23 61  1  0  0  0  0 
 23 62  1  0  0  0  0 
 25 26  1  0  0  0  0 
 25 63  1  0  0  0  0 
 25 64  1  0  0  0  0 
 26 30  1  0  0  0  0 
 26 31  1  0  0  0  0 
 26 65  1  0  0  0  0 
 27 66  1  0  0  0  0 
 27 67  1  0  0  0  0 
 27 68  1  0  0  0  0 
 28 69  1  0  0  0  0 
 28 70  1  0  0  0  0 
 28 71  1  0  0  0  0 
 29 72  1  0  0  0  0 
 29 73  1  0  0  0  0 
 29 74  1  0  0  0  0 
 30 75  1  0  0  0  0 
 30 76  1  0  0  0  0 
 30 77  1  0  0  0  0 
 31 78  1  0  0  0  0 
 31 79  1  0  0  0  0 
 31 80  1  0  0  0  0 
M  END
> <cdk:Title>
14985

> <cdk:Remark>
null

> <PUBCHEM_COMPOUND_CID>
14985

> <PUBCHEM_COMPOUND_CANONICALIZED>
1

> <PUBCHEM_CACTVS_COMPLEXITY>
503

> <PUBCHEM_CACTVS_HBOND_ACCEPTOR>
2

> <PUBCHEM_CACTVS_HBOND_DONOR>
1

> <PUBCHEM_CACTVS_ROTATABLE_BOND>
12

> <PUBCHEM_CACTVS_SUBSKEYS>
AAADcfB4MAAAAAAAAAAAAAAAAAAAAAAAAAA0QAAAAAAAAACRAAAAGgAACAAADUSAmAACBoAABgCAAgBAAAACCAAgIAAAiAAECIgMJiKGMBqCeCCkwBEIuAfAwPAOwQADAAAYAACCAAYAADAAAAAAAAAAAA==

> <PUBCHEM_IUPAC_OPENEYE_NAME>
(2R)-2,5,7,8-tetramethyl-2-[(4R,8R)-4,8,12-trimethyltridecyl]chroman-6-ol

> <PUBCHEM_IUPAC_CAS_NAME>
(2R)-2,5,7,8-tetramethyl-2-[(4R,8R)-4,8,12-trimethyltridecyl]-3,4-dihydro-2H-1-benzopyran-6-ol

> <PUBCHEM_IUPAC_NAME>
(2R)-2,5,7,8-tetramethyl-2-[(4R,8R)-4,8,12-trimethyltridecyl]-3,4-dihydrochromen-6-ol

> <PUBCHEM_IUPAC_SYSTEMATIC_NAME>
(2R)-2,5,7,8-tetramethyl-2-[(4R,8R)-4,8,12-trimethyltridecyl]-3,4-dihydrochromen-6-ol

> <PUBCHEM_IUPAC_TRADITIONAL_NAME>
(2R)-2,5,7,8-tetramethyl-2-[(4R,8R)-4,8,12-trimethyltridecyl]chroman-6-ol

> <PUBCHEM_IUPAC_INCHI>
InChI=1S/C29H50O2/c1-20(2)12-9-13-21(3)14-10-15-22(4)16-11-18-29(8)19-17-26-25(7)27(30)23(5)24(6)28(26)31-29/h20-22,30H,9-19H2,1-8H3/t21-,22-,29-/m1/s1

> <PUBCHEM_IUPAC_INCHIKEY>
GVJHHUAWPYXKBD-IEOSBIPESA-N

> <PUBCHEM_XLOGP3_AA>
10.7

> <PUBCHEM_EXACT_MASS>
430.381081

> <PUBCHEM_MOLECULAR_FORMULA>
C29H50O2

> <PUBCHEM_MOLECULAR_WEIGHT>
430.7061

> <PUBCHEM_OPENEYE_CAN_SMILES>
CC1=C(C(=C2CCC(OC2=C1C)(C)CCCC(C)CCCC(C)CCCC(C)C)C)O

> <PUBCHEM_OPENEYE_ISO_SMILES>
CC1=C(C(=C2CC[C@@](OC2=C1C)(C)CCC[C@H](C)CCC[C@H](C)CCCC(C)C)C)O

> <PUBCHEM_CACTVS_TPSA>
29.5

> <PUBCHEM_MONOISOTOPIC_WEIGHT>
430.381081

> <PUBCHEM_TOTAL_CHARGE>
0

> <PUBCHEM_HEAVY_ATOM_COUNT>
31

> <PUBCHEM_ATOM_DEF_STEREO_COUNT>
3

> <PUBCHEM_ATOM_UDEF_STEREO_COUNT>
0

> <PUBCHEM_BOND_DEF_STEREO_COUNT>
0

> <PUBCHEM_BOND_UDEF_STEREO_COUNT>
0

> <PUBCHEM_ISOTOPIC_ATOM_COUNT>
0

> <PUBCHEM_COMPONENT_COUNT>
1

> <PUBCHEM_CACTVS_TAUTO_COUNT>
9

> <PUBCHEM_COORDINATE_TYPE>
1
5
255

> <PUBCHEM_BONDANNOTATIONS>
12  14  8
12  19  8
14  20  8
16  23  6
19  24  8
20  22  8
22  24  8
3  11  6
7  17  6

> <DRUG_ID>
w189

> <DRUG_NAME>
Vitamin E

$$$$
23662381
  CDK     0927151942
null
  9  7  0  0  0  0  0  0  0  0999 V2000
    2.0000    0.0000    0.0000 I   0  0  0  0  0  0  0  0  0  0  0  0
    3.7320    0.0000    0.0000 S   0  0  0  0  0  0  0  0  0  0  0  0
    5.4641    0.0000    0.0000 Na  0  0  0  0  0  0  0  0  0  0  0  0
    4.5981    0.5000    0.0000 O   0  0  0  0  0  0  0  0  0  0  0  0
    3.2320    0.8660    0.0000 O   0  0  0  0  0  0  0  0  0  0  0  0
    4.2320   -0.8660    0.0000 O   0  0  0  0  0  0  0  0  0  0  0  0
    2.8660   -0.5000    0.0000 C   0  0  0  0  0  0  0  0  0  0  0  0
    2.4675   -0.9749    0.0000 H   0  0  0  0  0  0  0  0  0  0  0  0
    3.2646   -0.9749    0.0000 H   0  0  0  0  0  0  0  0  0  0  0  0
  1  7  1  0  0  0  0 
  2  4  1  0  0  0  0 
  2  5  2  0  0  0  0 
  2  6  2  0  0  0  0 
  2  7  1  0  0  0  0 
  7  8  1  0  0  0  0 
  7  9  1  0  0  0  0 
M  CHG  1   3   1
M  CHG  1   4  -1
M  END
> <cdk:Title>
23662381

> <cdk:Remark>
null

> <PUBCHEM_COMPOUND_CID>
23662381

> <PUBCHEM_COMPOUND_CANONICALIZED>
1

> <PUBCHEM_CACTVS_COMPLEXITY>
111

> <PUBCHEM_CACTVS_HBOND_ACCEPTOR>
3

> <PUBCHEM_CACTVS_HBOND_DONOR>
0

> <PUBCHEM_CACTVS_ROTATABLE_BOND>
1

> <PUBCHEM_CACTVS_SUBSKEYS>
AAADcQAAMCBAAgAAAAAAAAAAAAAAAAAAAAAAAAAAAAAAAAAAAAAAEAQgAAAAAAAAAACAAAAAAAIAAAAAAHAAAAAAAAAAAAAAAAAAAAAAAAAAAAAAAAAAAAAAAAAAAAAAAAAAAAAAAAAAAAAAAAAAAAAAAA==

> <PUBCHEM_IUPAC_OPENEYE_NAME>
sodium;iodomethanesulfonate

> <PUBCHEM_IUPAC_CAS_NAME>
sodium;iodomethanesulfonate

> <PUBCHEM_IUPAC_NAME>
sodium;iodomethanesulfonate

> <PUBCHEM_IUPAC_SYSTEMATIC_NAME>
sodium;iodanylmethanesulfonate

> <PUBCHEM_IUPAC_TRADITIONAL_NAME>
sodium;iodomethanesulfonate

> <PUBCHEM_IUPAC_INCHI>
InChI=1S/CH3IO3S.Na/c2-1-6(3,4)5;/h1H2,(H,3,4,5);/q;+1/p-1

> <PUBCHEM_IUPAC_INCHIKEY>
COCJIVDXXCJXND-UHFFFAOYSA-M

> <PUBCHEM_EXACT_MASS>
243.866707

> <PUBCHEM_MOLECULAR_FORMULA>
CH2INaO3S

> <PUBCHEM_MOLECULAR_WEIGHT>
243.984019

> <PUBCHEM_OPENEYE_CAN_SMILES>
C(S(=O)(=O)[O-])I.[Na+]

> <PUBCHEM_OPENEYE_ISO_SMILES>
C(S(=O)(=O)[O-])I.[Na+]

> <PUBCHEM_CACTVS_TPSA>
65.6

> <PUBCHEM_MONOISOTOPIC_WEIGHT>
243.866707

> <PUBCHEM_TOTAL_CHARGE>
0

> <PUBCHEM_HEAVY_ATOM_COUNT>
7

> <PUBCHEM_ATOM_DEF_STEREO_COUNT>
0

> <PUBCHEM_ATOM_UDEF_STEREO_COUNT>
0

> <PUBCHEM_BOND_DEF_STEREO_COUNT>
0

> <PUBCHEM_BOND_UDEF_STEREO_COUNT>
0

> <PUBCHEM_ISOTOPIC_ATOM_COUNT>
0

> <PUBCHEM_COMPONENT_COUNT>
2

> <PUBCHEM_CACTVS_TAUTO_COUNT>
1

> <PUBCHEM_NONSTANDARDBOND>
3  4  7

> <PUBCHEM_COORDINATE_TYPE>
1
5
255

> <DRUG_ID>
w19

> <DRUG_NAME>
Methiodal sodium

$$$$
6300
  CDK     0927151942
null
 50 53  0  0  0  0  0  0  0  0999 V2000
    9.1493    1.8120    0.0000 O   0  0  0  0  0  0  0  0  0  0  0  0
    2.0000   -2.1314    0.0000 O   0  0  0  0  0  0  0  0  0  0  0  0
    7.3931    0.9209    0.0000 C   0  0  1  0  0  0  0  0  0  0  0  0
    7.3931   -0.0791    0.0000 C   0  0  2  0  0  0  0  0  0  0  0  0
    6.5271   -0.5791    0.0000 C   0  0  1  0  0  0  0  0  0  0  0  0
    5.6610   -0.0791    0.0000 C   0  0  2  0  0  0  0  0  0  0  0  0
    8.3393    1.2257    0.0000 C   0  0  2  0  0  0  0  0  0  0  0  0
    6.5271    1.4209    0.0000 C   0  0  0  0  0  0  0  0  0  0  0  0
    8.3393   -0.3838    0.0000 C   0  0  0  0  0  0  0  0  0  0  0  0
    5.6610    0.9209    0.0000 C   0  0  0  0  0  0  0  0  0  0  0  0
    8.9229    0.4209    0.0000 C   0  0  0  0  0  0  0  0  0  0  0  0
    4.7510   -0.5859    0.0000 C   0  0  1  0  0  0  0  0  0  0  0  0
    6.5431   -1.6206    0.0000 C   0  0  0  0  0  0  0  0  0  0  0  0
    7.3931    1.9209    0.0000 C   0  0  0  0  0  0  0  0  0  0  0  0
    5.6451   -2.1483    0.0000 C   0  0  0  0  0  0  0  0  0  0  0  0
    4.7430   -1.6275    0.0000 C   0  0  0  0  0  0  0  0  0  0  0  0
    8.0319    2.1772    0.0000 C   0  0  0  0  0  0  0  0  0  0  0  0
    4.7587    0.4140    0.0000 C   0  0  0  0  0  0  0  0  0  0  0  0
    3.8242   -0.0218    0.0000 C   0  0  0  0  0  0  0  0  0  0  0  0
    3.8076   -2.1772    0.0000 C   0  0  0  0  0  0  0  0  0  0  0  0
    2.8763   -0.5498    0.0000 C   0  0  0  0  0  0  0  0  0  0  0  0
    2.8680   -1.6348    0.0000 C   0  0  0  0  0  0  0  0  0  0  0  0
    7.4830   -0.9243    0.0000 H   0  0  0  0  0  0  0  0  0  0  0  0
    7.2664   -0.9984    0.0000 H   0  0  0  0  0  0  0  0  0  0  0  0
    6.3972    0.3459    0.0000 H   0  0  0  0  0  0  0  0  0  0  0  0
    6.9256    1.8959    0.0000 H   0  0  0  0  0  0  0  0  0  0  0  0
    6.1285    1.8959    0.0000 H   0  0  0  0  0  0  0  0  0  0  0  0
    8.0883   -0.9507    0.0000 H   0  0  0  0  0  0  0  0  0  0  0  0
    8.8767   -0.6930    0.0000 H   0  0  0  0  0  0  0  0  0  0  0  0
    5.4490    1.5035    0.0000 H   0  0  0  0  0  0  0  0  0  0  0  0
    5.0504    0.8133    0.0000 H   0  0  0  0  0  0  0  0  0  0  0  0
    9.3838    0.0062    0.0000 H   0  0  0  0  0  0  0  0  0  0  0  0
    9.3838    0.8357    0.0000 H   0  0  0  0  0  0  0  0  0  0  0  0
    6.7612   -2.2010    0.0000 H   0  0  0  0  0  0  0  0  0  0  0  0
    7.1523   -1.5051    0.0000 H   0  0  0  0  0  0  0  0  0  0  0  0
    8.0131    1.9209    0.0000 H   0  0  0  0  0  0  0  0  0  0  0  0
    7.3931    2.5409    0.0000 H   0  0  0  0  0  0  0  0  0  0  0  0
    6.7731    1.9209    0.0000 H   0  0  0  0  0  0  0  0  0  0  0  0
    5.2478   -2.6243    0.0000 H   0  0  0  0  0  0  0  0  0  0  0  0
    6.0460   -2.6212    0.0000 H   0  0  0  0  0  0  0  0  0  0  0  0
    8.6219    2.3678    0.0000 H   0  0  0  0  0  0  0  0  0  0  0  0
    7.8414    2.7672    0.0000 H   0  0  0  0  0  0  0  0  0  0  0  0
    7.4420    1.9867    0.0000 H   0  0  0  0  0  0  0  0  0  0  0  0
    5.3787    0.4093    0.0000 H   0  0  0  0  0  0  0  0  0  0  0  0
    4.7635    1.0340    0.0000 H   0  0  0  0  0  0  0  0  0  0  0  0
    4.1388    0.4188    0.0000 H   0  0  0  0  0  0  0  0  0  0  0  0
    3.8361    0.5980    0.0000 H   0  0  0  0  0  0  0  0  0  0  0  0
    9.7153    1.5589    0.0000 H   0  0  0  0  0  0  0  0  0  0  0  0
    3.8100   -2.7972    0.0000 H   0  0  0  0  0  0  0  0  0  0  0  0
    2.3430   -0.2336    0.0000 H   0  0  0  0  0  0  0  0  0  0  0  0
  7  1  1  1  0  0  0 
  1 48  1  0  0  0  0 
  2 22  2  0  0  0  0 
  3  4  1  0  0  0  0 
  3  7  1  0  0  0  0 
  3  8  1  0  0  0  0 
  3 14  1  1  0  0  0 
  4  5  1  0  0  0  0 
  4  9  1  0  0  0  0 
  4 23  1  6  0  0  0 
  5  6  1  0  0  0  0 
  5 13  1  0  0  0  0 
  5 24  1  1  0  0  0 
  6 10  1  0  0  0  0 
  6 12  1  0  0  0  0 
  6 25  1  6  0  0  0 
  7 11  1  0  0  0  0 
  7 17  1  0  0  0  0 
  8 10  1  0  0  0  0 
  8 26  1  0  0  0  0 
  8 27  1  0  0  0  0 
  9 11  1  0  0  0  0 
  9 28  1  0  0  0  0 
  9 29  1  0  0  0  0 
 10 30  1  0  0  0  0 
 10 31  1  0  0  0  0 
 11 32  1  0  0  0  0 
 11 33  1  0  0  0  0 
 12 16  1  0  0  0  0 
 12 18  1  1  0  0  0 
 12 19  1  0  0  0  0 
 13 15  1  0  0  0  0 
 13 34  1  0  0  0  0 
 13 35  1  0  0  0  0 
 14 36  1  0  0  0  0 
 14 37  1  0  0  0  0 
 14 38  1  0  0  0  0 
 15 16  1  0  0  0  0 
 15 39  1  0  0  0  0 
 15 40  1  0  0  0  0 
 16 20  2  0  0  0  0 
 17 41  1  0  0  0  0 
 17 42  1  0  0  0  0 
 17 43  1  0  0  0  0 
 18 44  1  0  0  0  0 
 18 45  1  0  0  0  0 
 18 46  1  0  0  0  0 
 19 21  2  0  0  0  0 
 19 47  1  0  0  0  0 
 20 22  1  0  0  0  0 
 20 49  1  0  0  0  0 
 21 22  1  0  0  0  0 
 21 50  1  0  0  0  0 
M  END
> <cdk:Title>
6300

> <cdk:Remark>
null

> <PUBCHEM_COMPOUND_CID>
6300

> <PUBCHEM_COMPOUND_CANONICALIZED>
1

> <PUBCHEM_CACTVS_COMPLEXITY>
589

> <PUBCHEM_CACTVS_HBOND_ACCEPTOR>
2

> <PUBCHEM_CACTVS_HBOND_DONOR>
1

> <PUBCHEM_CACTVS_ROTATABLE_BOND>
0

> <PUBCHEM_CACTVS_SUBSKEYS>
AAADceB4MAAAAAAAAAAAAAAAAAAAAYAAAAAwYIAAAAAAAGDAAAAAGgAACAAAD0SAgAACAAAAAgCIAqBSAAAAAAAgAAAICAAAAEgAAAIAAQAAQAAEgAAIAYOAwPAPgAAAAAAAAACAAAQAACAAAYAADAAAAA==

> <PUBCHEM_IUPAC_OPENEYE_NAME>
(8R,9S,10R,13S,14S,17S)-17-hydroxy-10,13,17-trimethyl-7,8,9,11,12,14,15,16-octahydro-6H-cyclopenta[a]phenanthren-3-one

> <PUBCHEM_IUPAC_CAS_NAME>
(8R,9S,10R,13S,14S,17S)-17-hydroxy-10,13,17-trimethyl-7,8,9,11,12,14,15,16-octahydro-6H-cyclopenta[a]phenanthren-3-one

> <PUBCHEM_IUPAC_NAME>
(8R,9S,10R,13S,14S,17S)-17-hydroxy-10,13,17-trimethyl-7,8,9,11,12,14,15,16-octahydro-6H-cyclopenta[a]phenanthren-3-one

> <PUBCHEM_IUPAC_SYSTEMATIC_NAME>
(8R,9S,10R,13S,14S,17S)-10,13,17-trimethyl-17-oxidanyl-7,8,9,11,12,14,15,16-octahydro-6H-cyclopenta[a]phenanthren-3-one

> <PUBCHEM_IUPAC_TRADITIONAL_NAME>
(8R,9S,10R,13S,14S,17S)-17-hydroxy-10,13,17-trimethyl-7,8,9,11,12,14,15,16-octahydro-6H-cyclopenta[a]phenanthren-3-one

> <PUBCHEM_IUPAC_INCHI>
InChI=1S/C20H28O2/c1-18-9-6-14(21)12-13(18)4-5-15-16(18)7-10-19(2)17(15)8-11-20(19,3)22/h6,9,12,15-17,22H,4-5,7-8,10-11H2,1-3H3/t15-,16+,17+,18+,19+,20+/m1/s1

> <PUBCHEM_IUPAC_INCHIKEY>
XWALNWXLMVGSFR-HLXURNFRSA-N

> <PUBCHEM_XLOGP3>
3.6

> <PUBCHEM_EXACT_MASS>
300.20893

> <PUBCHEM_MOLECULAR_FORMULA>
C20H28O2

> <PUBCHEM_MOLECULAR_WEIGHT>
300.43512

> <PUBCHEM_OPENEYE_CAN_SMILES>
CC12CCC3C(C1CCC2(C)O)CCC4=CC(=O)C=CC34C

> <PUBCHEM_OPENEYE_ISO_SMILES>
C[C@]12CC[C@H]3[C@H]([C@@H]1CC[C@]2(C)O)CCC4=CC(=O)C=C[C@]34C

> <PUBCHEM_CACTVS_TPSA>
37.3

> <PUBCHEM_MONOISOTOPIC_WEIGHT>
300.20893

> <PUBCHEM_TOTAL_CHARGE>
0

> <PUBCHEM_HEAVY_ATOM_COUNT>
22

> <PUBCHEM_ATOM_DEF_STEREO_COUNT>
6

> <PUBCHEM_ATOM_UDEF_STEREO_COUNT>
0

> <PUBCHEM_BOND_DEF_STEREO_COUNT>
0

> <PUBCHEM_BOND_UDEF_STEREO_COUNT>
0

> <PUBCHEM_ISOTOPIC_ATOM_COUNT>
0

> <PUBCHEM_COMPONENT_COUNT>
1

> <PUBCHEM_CACTVS_TAUTO_COUNT>
3

> <PUBCHEM_COORDINATE_TYPE>
1
5
255

> <PUBCHEM_BONDANNOTATIONS>
7  1  5
12  18  5
3  14  5
4  23  6
5  24  5
6  25  6

> <DRUG_ID>
w190

> <DRUG_NAME>
Methandrostenolone

$$$$
72325
  CDK     0927151942
null
 65 62  0  0  0  0  0  0  0  0999 V2000
   12.9788    0.8660    0.0000 S   0  0  0  0  0  0  0  0  0  0  0  0
   12.1127    1.3660    0.0000 O   0  0  0  0  0  0  0  0  0  0  0  0
   13.8448    0.3660    0.0000 O   0  0  0  0  0  0  0  0  0  0  0  0
   13.4788    1.7320    0.0000 O   0  0  0  0  0  0  0  0  0  0  0  0
   12.4788    0.0000    0.0000 O   0  0  0  0  0  0  0  0  0  0  0  0
    4.5267    2.8618    0.0000 O   0  0  0  0  0  0  0  0  0  0  0  0
   12.9788    4.2544    0.0000 O   0  0  0  0  0  0  0  0  0  0  0  0
   12.9788    7.4074    0.0000 O   0  0  0  0  0  0  0  0  0  0  0  0
   12.9788   10.5603    0.0000 O   0  0  0  0  0  0  0  0  0  0  0  0
   12.9788   13.7133    0.0000 O   0  0  0  0  0  0  0  0  0  0  0  0
    6.6647    8.1648    0.0000 N   0  0  3  0  0  0  0  0  0  0  0  0
    1.7341    8.5859    0.0000 N   0  0  3  0  0  0  0  0  0  0  0  0
    3.9572    9.9671    0.0000 C   0  0  2  0  0  0  0  0  0  0  0  0
    4.2160    9.0012    0.0000 C   0  0  2  0  0  0  0  0  0  0  0  0
    6.5602    9.1593    0.0000 C   0  0  2  0  0  0  0  0  0  0  0  0
    2.5113    7.9565    0.0000 C   0  0  1  0  0  0  0  0  0  0  0  0
    4.6938   10.9497    0.0000 C   0  0  0  0  0  0  0  0  0  0  0  0
    5.7511    7.7580    0.0000 C   0  0  0  0  0  0  0  0  0  0  0  0
    2.0925    9.5194    0.0000 C   0  0  0  0  0  0  0  0  0  0  0  0
    7.3933    9.7845    0.0000 C   0  0  0  0  0  0  0  0  0  0  0  0
    2.3642    6.9254    0.0000 C   0  0  0  0  0  0  0  0  0  0  0  0
    7.6096    7.7265    0.0000 C   0  0  0  0  0  0  0  0  0  0  0  0
    0.7560    8.2276    0.0000 C   0  0  0  0  0  0  0  0  0  0  0  0
    8.3481    9.3682    0.0000 C   0  0  0  0  0  0  0  0  0  0  0  0
    1.3947    6.5446    0.0000 C   0  0  0  0  0  0  0  0  0  0  0  0
    8.4570    8.3322    0.0000 C   0  0  0  0  0  0  0  0  0  0  0  0
    0.5852    7.2001    0.0000 C   0  0  0  0  0  0  0  0  0  0  0  0
    3.7372   10.7881    0.0000 H   0  0  0  0  0  0  0  0  0  0  0  0
    4.4360    8.1801    0.0000 H   0  0  0  0  0  0  0  0  0  0  0  0
    6.4713   10.0046    0.0000 H   0  0  0  0  0  0  0  0  0  0  0  0
    3.1718    7.4216    0.0000 H   0  0  0  0  0  0  0  0  0  0  0  0
    4.3760   11.4821    0.0000 H   0  0  0  0  0  0  0  0  0  0  0  0
    5.3069   11.0417    0.0000 H   0  0  0  0  0  0  0  0  0  0  0  0
    6.0888    7.2381    0.0000 H   0  0  0  0  0  0  0  0  0  0  0  0
    5.2904    7.3432    0.0000 H   0  0  0  0  0  0  0  0  0  0  0  0
    1.4810    9.6218    0.0000 H   0  0  0  0  0  0  0  0  0  0  0  0
    2.0709   10.1391    0.0000 H   0  0  0  0  0  0  0  0  0  0  0  0
    6.9418   10.2094    0.0000 H   0  0  0  0  0  0  0  0  0  0  0  0
    7.7347   10.3020    0.0000 H   0  0  0  0  0  0  0  0  0  0  0  0
    2.9839    6.9441    0.0000 H   0  0  0  0  0  0  0  0  0  0  0  0
    2.4888    6.3180    0.0000 H   0  0  0  0  0  0  0  0  0  0  0  0
    8.0512    7.2912    0.0000 H   0  0  0  0  0  0  0  0  0  0  0  0
    7.2563    7.2170    0.0000 H   0  0  0  0  0  0  0  0  0  0  0  0
    0.1361    8.2232    0.0000 H   0  0  0  0  0  0  0  0  0  0  0  0
    0.6456    8.8377    0.0000 H   0  0  0  0  0  0  0  0  0  0  0  0
    8.4950    9.9705    0.0000 H   0  0  0  0  0  0  0  0  0  0  0  0
    8.9667    9.3265    0.0000 H   0  0  0  0  0  0  0  0  0  0  0  0
    1.7167    6.0148    0.0000 H   0  0  0  0  0  0  0  0  0  0  0  0
    0.9278    6.1366    0.0000 H   0  0  0  0  0  0  0  0  0  0  0  0
    9.0534    8.5016    0.0000 H   0  0  0  0  0  0  0  0  0  0  0  0
    8.7259    7.7736    0.0000 H   0  0  0  0  0  0  0  0  0  0  0  0
    0.2832    6.6586    0.0000 H   0  0  0  0  0  0  0  0  0  0  0  0
    0.0000    7.4050    0.0000 H   0  0  0  0  0  0  0  0  0  0  0  0
   11.5758    1.0560    0.0000 H   0  0  0  0  0  0  0  0  0  0  0  0
   14.3817    0.6760    0.0000 H   0  0  0  0  0  0  0  0  0  0  0  0
    3.9898    3.1718    0.0000 H   0  0  0  0  0  0  0  0  0  0  0  0
    5.0636    3.1718    0.0000 H   0  0  0  0  0  0  0  0  0  0  0  0
   12.4418    4.5644    0.0000 H   0  0  0  0  0  0  0  0  0  0  0  0
   13.5157    4.5644    0.0000 H   0  0  0  0  0  0  0  0  0  0  0  0
   12.4418    7.7174    0.0000 H   0  0  0  0  0  0  0  0  0  0  0  0
   13.5157    7.7174    0.0000 H   0  0  0  0  0  0  0  0  0  0  0  0
   12.4418   10.8703    0.0000 H   0  0  0  0  0  0  0  0  0  0  0  0
   13.5157   10.8703    0.0000 H   0  0  0  0  0  0  0  0  0  0  0  0
   12.4418   14.0233    0.0000 H   0  0  0  0  0  0  0  0  0  0  0  0
   13.5157   14.0233    0.0000 H   0  0  0  0  0  0  0  0  0  0  0  0
  1  2  1  0  0  0  0 
  1  3  1  0  0  0  0 
  1  4  2  0  0  0  0 
  1  5  2  0  0  0  0 
  2 54  1  0  0  0  0 
  3 55  1  0  0  0  0 
  6 56  1  0  0  0  0 
  6 57  1  0  0  0  0 
  7 58  1  0  0  0  0 
  7 59  1  0  0  0  0 
  8 60  1  0  0  0  0 
  8 61  1  0  0  0  0 
  9 62  1  0  0  0  0 
  9 63  1  0  0  0  0 
 10 64  1  0  0  0  0 
 10 65  1  0  0  0  0 
 11 15  1  0  0  0  0 
 11 18  1  0  0  0  0 
 11 22  1  0  0  0  0 
 12 16  1  0  0  0  0 
 12 19  1  0  0  0  0 
 12 23  1  0  0  0  0 
 13 15  1  0  0  0  0 
 13 17  1  0  0  0  0 
 13 19  1  0  0  0  0 
 13 28  1  6  0  0  0 
 14 16  1  0  0  0  0 
 14 17  1  0  0  0  0 
 14 18  1  0  0  0  0 
 14 29  1  1  0  0  0 
 15 20  1  0  0  0  0 
 15 30  1  1  0  0  0 
 16 21  1  0  0  0  0 
 16 31  1  6  0  0  0 
 17 32  1  0  0  0  0 
 17 33  1  0  0  0  0 
 18 34  1  0  0  0  0 
 18 35  1  0  0  0  0 
 19 36  1  0  0  0  0 
 19 37  1  0  0  0  0 
 20 24  1  0  0  0  0 
 20 38  1  0  0  0  0 
 20 39  1  0  0  0  0 
 21 25  1  0  0  0  0 
 21 40  1  0  0  0  0 
 21 41  1  0  0  0  0 
 22 26  1  0  0  0  0 
 22 42  1  0  0  0  0 
 22 43  1  0  0  0  0 
 23 27  1  0  0  0  0 
 23 44  1  0  0  0  0 
 23 45  1  0  0  0  0 
 24 26  1  0  0  0  0 
 24 46  1  0  0  0  0 
 24 47  1  0  0  0  0 
 25 27  1  0  0  0  0 
 25 48  1  0  0  0  0 
 25 49  1  0  0  0  0 
 26 50  1  0  0  0  0 
 26 51  1  0  0  0  0 
 27 52  1  0  0  0  0 
 27 53  1  0  0  0  0 
M  END
> <cdk:Title>
72325

> <cdk:Remark>
null

> <PUBCHEM_COMPOUND_CID>
72325

> <PUBCHEM_COMPOUND_CANONICALIZED>
1

> <PUBCHEM_CACTVS_COMPLEXITY>
344

> <PUBCHEM_CACTVS_HBOND_ACCEPTOR>
11

> <PUBCHEM_CACTVS_HBOND_DONOR>
7

> <PUBCHEM_CACTVS_ROTATABLE_BOND>
0

> <PUBCHEM_CACTVS_SUBSKEYS>
AAADcfBzPABAAAAAAAAAAAAAAAAAAAAAAAAsWLFgAAAWAACwAAAAHAAACAAADSjBAAQAAAMAAIAAAAAAADAAAAAAAAAAAAAIAAAAAAIAwAAEAAAAAACAAAEQgMAOAAAAAAAAAAAAAAAAAAAAAAAAAAAAAA==

> <PUBCHEM_IUPAC_INCHI>
InChI=1S/C15H26N2.H2O4S.5H2O/c1-3-7-16-11-13-9-12(14(16)5-1)10-17-8-4-2-6-15(13)17;1-5(2,3)4;;;;;/h12-15H,1-11H2;(H2,1,2,3,4);5*1H2/t12-,13-,14-,15+;;;;;;/m1....../s1

> <PUBCHEM_IUPAC_INCHIKEY>
WNSDDGBLIALDPB-HTZKOJAYSA-N

> <PUBCHEM_EXACT_MASS>
422.229802

> <PUBCHEM_MOLECULAR_FORMULA>
C15H38N2O9S

> <PUBCHEM_MOLECULAR_WEIGHT>
422.53522

> <PUBCHEM_OPENEYE_CAN_SMILES>
C1CCN2CC3CC(C2C1)CN4C3CCCC4.O.O.O.O.O.OS(=O)(=O)O

> <PUBCHEM_OPENEYE_ISO_SMILES>
C1CCN2C[C@H]3C[C@@H]([C@H]2C1)CN4[C@H]3CCCC4.O.O.O.O.O.OS(=O)(=O)O

> <PUBCHEM_CACTVS_TPSA>
94.5

> <PUBCHEM_MONOISOTOPIC_WEIGHT>
422.229802

> <PUBCHEM_TOTAL_CHARGE>
0

> <PUBCHEM_HEAVY_ATOM_COUNT>
27

> <PUBCHEM_ATOM_DEF_STEREO_COUNT>
4

> <PUBCHEM_ATOM_UDEF_STEREO_COUNT>
0

> <PUBCHEM_BOND_DEF_STEREO_COUNT>
0

> <PUBCHEM_BOND_UDEF_STEREO_COUNT>
0

> <PUBCHEM_ISOTOPIC_ATOM_COUNT>
0

> <PUBCHEM_COMPONENT_COUNT>
7

> <PUBCHEM_CACTVS_TAUTO_COUNT>
1

> <PUBCHEM_COORDINATE_TYPE>
1
5
255

> <PUBCHEM_BONDANNOTATIONS>
13  28  6
14  29  5
15  30  5
16  31  6

> <DRUG_ID>
w191

> <DRUG_NAME>
Sparteine Sulphate

$$$$
21864418
  CDK     0927151942
null
 10  9  0  0  0  0  0  0  0  0999 V2000
    0.8987    0.0000    0.0000 Cl  0  0  0  0  0  0  0  0  0  0  0  0
    1.3987    2.5000    0.0000 S   0  0  0  0  0  0  0  0  0  0  0  0
    0.8987    4.0388    0.0000 N   0  0  0  0  0  0  0  0  0  0  0  0
    2.2077    3.0878    0.0000 C   0  0  0  0  0  0  0  0  0  0  0  0
    1.8987    4.0388    0.0000 C   0  0  0  0  0  0  0  0  0  0  0  0
    0.5897    3.0878    0.0000 C   0  0  0  0  0  0  0  0  0  0  0  0
    2.7973    2.8962    0.0000 H   0  0  0  0  0  0  0  0  0  0  0  0
    2.2631    4.5404    0.0000 H   0  0  0  0  0  0  0  0  0  0  0  0
    0.0000    2.8962    0.0000 H   0  0  0  0  0  0  0  0  0  0  0  0
    1.8987    0.0000    0.0000 H   0  0  0  0  0  0  0  0  0  0  0  0
  1 10  1  0  0  0  0 
  2  4  1  0  0  0  0 
  2  6  1  0  0  0  0 
  3  5  1  0  0  0  0 
  3  6  2  0  0  0  0 
  4  5  2  0  0  0  0 
  4  7  1  0  0  0  0 
  5  8  1  0  0  0  0 
  6  9  1  0  0  0  0 
M  END
> <cdk:Title>
21864418

> <cdk:Remark>
null

> <PUBCHEM_COMPOUND_CID>
21864418

> <PUBCHEM_COMPOUND_CANONICALIZED>
1

> <PUBCHEM_CACTVS_COMPLEXITY>
30.1

> <PUBCHEM_CACTVS_HBOND_ACCEPTOR>
2

> <PUBCHEM_CACTVS_HBOND_DONOR>
1

> <PUBCHEM_CACTVS_ROTATABLE_BOND>
0

> <PUBCHEM_CACTVS_SUBSKEYS>
AAADcYBCAABEAAAAAAAAAAAAAAAAAWAAAAAAAAAAAAAAAAABgAAAHAQAAAAAAADFQgSsgRIIEAikABAnRAAA8KBRCjhIQAwYIAAAAAAAAAAAAAAAAAAAAAAAAAAAAAAAAAAAAAAAAAAAAAAAAAAAAAAAAA==

> <PUBCHEM_IUPAC_OPENEYE_NAME>
thiazole;hydrochloride

> <PUBCHEM_IUPAC_CAS_NAME>
thiazole;hydrochloride

> <PUBCHEM_IUPAC_NAME>
1,3-thiazole;hydrochloride

> <PUBCHEM_IUPAC_SYSTEMATIC_NAME>
1,3-thiazole;hydrochloride

> <PUBCHEM_IUPAC_TRADITIONAL_NAME>
thiazole;hydrochloride

> <PUBCHEM_IUPAC_INCHI>
InChI=1S/C3H3NS.ClH/c1-2-5-3-4-1;/h1-3H;1H

> <PUBCHEM_IUPAC_INCHIKEY>
ORECNKBJIMKZNX-UHFFFAOYSA-N

> <PUBCHEM_EXACT_MASS>
120.975298

> <PUBCHEM_MOLECULAR_FORMULA>
C3H4ClNS

> <PUBCHEM_MOLECULAR_WEIGHT>
121.58856

> <PUBCHEM_OPENEYE_CAN_SMILES>
C1=CSC=N1.Cl

> <PUBCHEM_OPENEYE_ISO_SMILES>
C1=CSC=N1.Cl

> <PUBCHEM_CACTVS_TPSA>
41.1

> <PUBCHEM_MONOISOTOPIC_WEIGHT>
120.975298

> <PUBCHEM_TOTAL_CHARGE>
0

> <PUBCHEM_HEAVY_ATOM_COUNT>
6

> <PUBCHEM_ATOM_DEF_STEREO_COUNT>
0

> <PUBCHEM_ATOM_UDEF_STEREO_COUNT>
0

> <PUBCHEM_BOND_DEF_STEREO_COUNT>
0

> <PUBCHEM_BOND_UDEF_STEREO_COUNT>
0

> <PUBCHEM_ISOTOPIC_ATOM_COUNT>
0

> <PUBCHEM_COMPONENT_COUNT>
2

> <PUBCHEM_CACTVS_TAUTO_COUNT>
1

> <PUBCHEM_COORDINATE_TYPE>
1
5
255

> <PUBCHEM_BONDANNOTATIONS>
2  4  8
2  6  8
3  5  8
3  6  8
4  5  8

> <DRUG_ID>
w193

> <DRUG_NAME>
Hydrochlorthiazide

$$$$
6604457
  CDK     0927151942
null
 61 63  0  0  0  0  0  0  0  0999 V2000
    3.4782   -0.0119    0.0000 O   0  0  0  0  0  0  0  0  0  0  0  0
    6.1808   -0.5173    0.0000 O   0  0  0  0  0  0  0  0  0  0  0  0
    4.4487   -0.5173    0.0000 O   0  0  0  0  0  0  0  0  0  0  0  0
    7.0468   -3.0173    0.0000 N   0  0  0  0  0  0  0  0  0  0  0  0
    3.5827    0.9827    0.0000 C   0  0  2  0  0  0  0  0  0  0  0  0
    4.4487    1.4827    0.0000 C   0  0  0  0  0  0  0  0  0  0  0  0
    2.6691    1.3894    0.0000 C   0  0  0  0  0  0  0  0  0  0  0  0
    5.3147    0.9827    0.0000 C   0  0  2  0  0  0  0  0  0  0  0  0
    2.0000    0.6463    0.0000 C   0  0  0  0  0  0  0  0  0  0  0  0
    2.5000   -0.2198    0.0000 C   0  0  0  0  0  0  0  0  0  0  0  0
    6.1808    1.4827    0.0000 C   0  0  0  0  0  0  0  0  0  0  0  0
    5.3147   -0.0173    0.0000 C   0  0  0  0  0  0  0  0  0  0  0  0
    6.1808    2.4827    0.0000 C   0  0  0  0  0  0  0  0  0  0  0  0
    7.0468    2.9827    0.0000 C   0  0  0  0  0  0  0  0  0  0  0  0
    5.3147    2.9827    0.0000 C   0  0  0  0  0  0  0  0  0  0  0  0
    6.1808   -1.5173    0.0000 C   0  0  0  0  0  0  0  0  0  0  0  0
    7.0468    3.9827    0.0000 C   0  0  0  0  0  0  0  0  0  0  0  0
    7.0468   -2.0173    0.0000 C   0  0  0  0  0  0  0  0  0  0  0  0
    7.9407    2.4480    0.0000 C   0  0  0  0  0  0  0  0  0  0  0  0
    5.3147    3.9827    0.0000 C   0  0  0  0  0  0  0  0  0  0  0  0
    6.1808    4.4827    0.0000 C   0  0  0  0  0  0  0  0  0  0  0  0
    7.9407    4.5173    0.0000 C   0  0  0  0  0  0  0  0  0  0  0  0
    7.9128   -3.5173    0.0000 C   0  0  0  0  0  0  0  0  0  0  0  0
    6.1808   -3.5173    0.0000 C   0  0  0  0  0  0  0  0  0  0  0  0
    8.8468    2.9618    0.0000 C   0  0  0  0  0  0  0  0  0  0  0  0
    8.8468    4.0035    0.0000 C   0  0  0  0  0  0  0  0  0  0  0  0
    6.1808   -4.5173    0.0000 C   0  0  0  0  0  0  0  0  0  0  0  0
    7.9128   -4.5173    0.0000 C   0  0  0  0  0  0  0  0  0  0  0  0
    4.1026    0.6450    0.0000 H   0  0  0  0  0  0  0  0  0  0  0  0
    4.8472    1.9576    0.0000 H   0  0  0  0  0  0  0  0  0  0  0  0
    4.0502    1.9576    0.0000 H   0  0  0  0  0  0  0  0  0  0  0  0
    2.9791    1.9263    0.0000 H   0  0  0  0  0  0  0  0  0  0  0  0
    2.1675    1.7538    0.0000 H   0  0  0  0  0  0  0  0  0  0  0  0
    5.3147    1.6027    0.0000 H   0  0  0  0  0  0  0  0  0  0  0  0
    1.5851    1.1070    0.0000 H   0  0  0  0  0  0  0  0  0  0  0  0
    1.4984    0.2818    0.0000 H   0  0  0  0  0  0  0  0  0  0  0  0
    1.9336   -0.4719    0.0000 H   0  0  0  0  0  0  0  0  0  0  0  0
    2.6916   -0.8094    0.0000 H   0  0  0  0  0  0  0  0  0  0  0  0
    6.3928    0.9001    0.0000 H   0  0  0  0  0  0  0  0  0  0  0  0
    6.7913    1.5903    0.0000 H   0  0  0  0  0  0  0  0  0  0  0  0
    4.7778    2.6727    0.0000 H   0  0  0  0  0  0  0  0  0  0  0  0
    5.5702   -1.4097    0.0000 H   0  0  0  0  0  0  0  0  0  0  0  0
    5.9687   -2.0999    0.0000 H   0  0  0  0  0  0  0  0  0  0  0  0
    7.6574   -2.1250    0.0000 H   0  0  0  0  0  0  0  0  0  0  0  0
    7.2588   -1.4347    0.0000 H   0  0  0  0  0  0  0  0  0  0  0  0
    7.9336    1.8280    0.0000 H   0  0  0  0  0  0  0  0  0  0  0  0
    4.7778    4.2927    0.0000 H   0  0  0  0  0  0  0  0  0  0  0  0
    6.1808    5.1027    0.0000 H   0  0  0  0  0  0  0  0  0  0  0  0
    7.9336    5.1373    0.0000 H   0  0  0  0  0  0  0  0  0  0  0  0
    8.5234   -3.6250    0.0000 H   0  0  0  0  0  0  0  0  0  0  0  0
    8.1249   -2.9347    0.0000 H   0  0  0  0  0  0  0  0  0  0  0  0
    5.9687   -2.9347    0.0000 H   0  0  0  0  0  0  0  0  0  0  0  0
    5.5702   -3.6250    0.0000 H   0  0  0  0  0  0  0  0  0  0  0  0
    9.3825    2.6498    0.0000 H   0  0  0  0  0  0  0  0  0  0  0  0
    9.3825    4.3156    0.0000 H   0  0  0  0  0  0  0  0  0  0  0  0
    5.5608   -4.5173    0.0000 H   0  0  0  0  0  0  0  0  0  0  0  0
    6.1808   -5.1373    0.0000 H   0  0  0  0  0  0  0  0  0  0  0  0
    6.8008   -4.5173    0.0000 H   0  0  0  0  0  0  0  0  0  0  0  0
    7.2928   -4.5173    0.0000 H   0  0  0  0  0  0  0  0  0  0  0  0
    7.9128   -5.1373    0.0000 H   0  0  0  0  0  0  0  0  0  0  0  0
    8.5328   -4.5173    0.0000 H   0  0  0  0  0  0  0  0  0  0  0  0
  1  5  1  0  0  0  0 
  1 10  1  0  0  0  0 
  2 12  1  0  0  0  0 
  2 16  1  0  0  0  0 
  3 12  2  0  0  0  0 
  4 18  1  0  0  0  0 
  4 23  1  0  0  0  0 
  4 24  1  0  0  0  0 
  5  6  1  1  0  0  0 
  5  7  1  0  0  0  0 
  5 29  1  0  0  0  0 
  8  6  1  6  0  0  0 
  6 30  1  0  0  0  0 
  6 31  1  0  0  0  0 
  7  9  1  0  0  0  0 
  7 32  1  0  0  0  0 
  7 33  1  0  0  0  0 
  8 11  1  0  0  0  0 
  8 12  1  0  0  0  0 
  8 34  1  0  0  0  0 
  9 10  1  0  0  0  0 
  9 35  1  0  0  0  0 
  9 36  1  0  0  0  0 
 10 37  1  0  0  0  0 
 10 38  1  0  0  0  0 
 11 13  1  0  0  0  0 
 11 39  1  0  0  0  0 
 11 40  1  0  0  0  0 
 13 14  1  0  0  0  0 
 13 15  2  0  0  0  0 
 14 17  1  0  0  0  0 
 14 19  2  0  0  0  0 
 15 20  1  0  0  0  0 
 15 41  1  0  0  0  0 
 16 18  1  0  0  0  0 
 16 42  1  0  0  0  0 
 16 43  1  0  0  0  0 
 17 21  1  0  0  0  0 
 17 22  2  0  0  0  0 
 18 44  1  0  0  0  0 
 18 45  1  0  0  0  0 
 19 25  1  0  0  0  0 
 19 46  1  0  0  0  0 
 20 21  2  0  0  0  0 
 20 47  1  0  0  0  0 
 21 48  1  0  0  0  0 
 22 26  1  0  0  0  0 
 22 49  1  0  0  0  0 
 23 28  1  0  0  0  0 
 23 50  1  0  0  0  0 
 23 51  1  0  0  0  0 
 24 27  1  0  0  0  0 
 24 52  1  0  0  0  0 
 24 53  1  0  0  0  0 
 25 26  2  0  0  0  0 
 25 54  1  0  0  0  0 
 26 55  1  0  0  0  0 
 27 56  1  0  0  0  0 
 27 57  1  0  0  0  0 
 27 58  1  0  0  0  0 
 28 59  1  0  0  0  0 
 28 60  1  0  0  0  0 
 28 61  1  0  0  0  0 
M  END
> <cdk:Title>
6604457

> <cdk:Remark>
null

> <PUBCHEM_COMPOUND_CID>
6604457

> <PUBCHEM_COMPOUND_CANONICALIZED>
1

> <PUBCHEM_CACTVS_COMPLEXITY>
465

> <PUBCHEM_CACTVS_HBOND_ACCEPTOR>
4

> <PUBCHEM_CACTVS_HBOND_DONOR>
0

> <PUBCHEM_CACTVS_ROTATABLE_BOND>
11

> <PUBCHEM_CACTVS_SUBSKEYS>
AAADcfB6MAAAAAAAAAAAAAAAAAAAASAAAAAwYAAAAAAAAADBUAAAHgAAAAAADRThmAYyCMMABACIAiDSCAACAAAgAAAIiAEIAIgKIDKAERCDIAAkgACYiAfKyPCOgAACAAAQAAAAAAQAACAAAAAAAAAAAA==

> <PUBCHEM_IUPAC_OPENEYE_NAME>
2-(diethylamino)ethyl (2S)-2-(1-naphthylmethyl)-3-[(2S)-tetrahydrofuran-2-yl]propanoate

> <PUBCHEM_IUPAC_CAS_NAME>
(2S)-2-(1-naphthalenylmethyl)-3-[(2S)-2-oxolanyl]propanoic acid 2-(diethylamino)ethyl ester

> <PUBCHEM_IUPAC_NAME>
2-(diethylamino)ethyl (2S)-2-(naphthalen-1-ylmethyl)-3-[(2S)-oxolan-2-yl]propanoate

> <PUBCHEM_IUPAC_SYSTEMATIC_NAME>
2-(diethylamino)ethyl (2S)-2-(naphthalen-1-ylmethyl)-3-[(2S)-oxolan-2-yl]propanoate

> <PUBCHEM_IUPAC_TRADITIONAL_NAME>
(2S)-2-(1-naphthylmethyl)-3-[(2S)-tetrahydrofuran-2-yl]propionic acid 2-(diethylamino)ethyl ester

> <PUBCHEM_IUPAC_INCHI>
InChI=1S/C24H33NO3/c1-3-25(4-2)14-16-28-24(26)21(18-22-12-8-15-27-22)17-20-11-7-10-19-9-5-6-13-23(19)20/h5-7,9-11,13,21-22H,3-4,8,12,14-18H2,1-2H3/t21-,22-/m0/s1

> <PUBCHEM_IUPAC_INCHIKEY>
KBAFPSLPKGSANY-VXKWHMMOSA-N

> <PUBCHEM_XLOGP3_AA>
4.8

> <PUBCHEM_EXACT_MASS>
383.246044

> <PUBCHEM_MOLECULAR_FORMULA>
C24H33NO3

> <PUBCHEM_MOLECULAR_WEIGHT>
383.52372

> <PUBCHEM_OPENEYE_CAN_SMILES>
CCN(CC)CCOC(=O)C(CC1CCCO1)CC2=CC=CC3=CC=CC=C32

> <PUBCHEM_OPENEYE_ISO_SMILES>
CCN(CC)CCOC(=O)[C@H](C[C@@H]1CCCO1)CC2=CC=CC3=CC=CC=C32

> <PUBCHEM_CACTVS_TPSA>
38.8

> <PUBCHEM_MONOISOTOPIC_WEIGHT>
383.246044

> <PUBCHEM_TOTAL_CHARGE>
0

> <PUBCHEM_HEAVY_ATOM_COUNT>
28

> <PUBCHEM_ATOM_DEF_STEREO_COUNT>
2

> <PUBCHEM_ATOM_UDEF_STEREO_COUNT>
0

> <PUBCHEM_BOND_DEF_STEREO_COUNT>
0

> <PUBCHEM_BOND_UDEF_STEREO_COUNT>
0

> <PUBCHEM_ISOTOPIC_ATOM_COUNT>
0

> <PUBCHEM_COMPONENT_COUNT>
1

> <PUBCHEM_CACTVS_TAUTO_COUNT>
78

> <PUBCHEM_COORDINATE_TYPE>
1
5
255

> <PUBCHEM_BONDANNOTATIONS>
13  14  8
13  15  8
14  17  8
14  19  8
15  20  8
17  21  8
17  22  8
19  25  8
20  21  8
22  26  8
25  26  8
5  6  5
8  6  6

> <DRUG_ID>
w194

> <DRUG_NAME>
Naftidrofuryl Oxalate

$$$$
2763
  CDK     0927151942
null
 32 33  0  0  0  0  0  0  0  0999 V2000
    5.0981    4.0880    0.0000 Cl  0  0  0  0  0  0  0  0  0  0  0  0
    5.9641    2.5880    0.0000 Cl  0  0  0  0  0  0  0  0  0  0  0  0
    4.5981   -1.7780    0.0000 O   0  0  0  0  0  0  0  0  0  0  0  0
    2.8660   -3.7780    0.0000 O   0  0  0  0  0  0  0  0  0  0  0  0
    2.0000   -2.2780    0.0000 O   0  0  0  0  0  0  0  0  0  0  0  0
    4.5981    2.2220    0.0000 C   0  0  3  0  0  0  0  0  0  0  0  0
    5.0981    3.0880    0.0000 C   0  0  0  0  0  0  0  0  0  0  0  0
    4.0981    3.0880    0.0000 C   0  0  0  0  0  0  0  0  0  0  0  0
    4.5981    1.2220    0.0000 C   0  0  0  0  0  0  0  0  0  0  0  0
    3.7320    0.7220    0.0000 C   0  0  0  0  0  0  0  0  0  0  0  0
    5.4641    0.7220    0.0000 C   0  0  0  0  0  0  0  0  0  0  0  0
    3.7320   -0.2780    0.0000 C   0  0  0  0  0  0  0  0  0  0  0  0
    5.4641   -0.2780    0.0000 C   0  0  0  0  0  0  0  0  0  0  0  0
    4.5981   -0.7780    0.0000 C   0  0  0  0  0  0  0  0  0  0  0  0
    3.7320   -2.2780    0.0000 C   0  0  0  0  0  0  0  0  0  0  0  0
    4.2320   -3.1440    0.0000 C   0  0  0  0  0  0  0  0  0  0  0  0
    3.2320   -1.4120    0.0000 C   0  0  0  0  0  0  0  0  0  0  0  0
    2.8660   -2.7780    0.0000 C   0  0  0  0  0  0  0  0  0  0  0  0
    5.4191    2.0020    0.0000 H   0  0  0  0  0  0  0  0  0  0  0  0
    3.9904    3.6986    0.0000 H   0  0  0  0  0  0  0  0  0  0  0  0
    3.5155    2.8760    0.0000 H   0  0  0  0  0  0  0  0  0  0  0  0
    3.1951    1.0320    0.0000 H   0  0  0  0  0  0  0  0  0  0  0  0
    6.0010    1.0320    0.0000 H   0  0  0  0  0  0  0  0  0  0  0  0
    3.1951   -0.5880    0.0000 H   0  0  0  0  0  0  0  0  0  0  0  0
    6.0010   -0.5880    0.0000 H   0  0  0  0  0  0  0  0  0  0  0  0
    3.6951   -3.4540    0.0000 H   0  0  0  0  0  0  0  0  0  0  0  0
    4.5420   -3.6810    0.0000 H   0  0  0  0  0  0  0  0  0  0  0  0
    4.7690   -2.8340    0.0000 H   0  0  0  0  0  0  0  0  0  0  0  0
    3.7690   -1.1020    0.0000 H   0  0  0  0  0  0  0  0  0  0  0  0
    2.9220   -0.8751    0.0000 H   0  0  0  0  0  0  0  0  0  0  0  0
    2.6951   -1.7220    0.0000 H   0  0  0  0  0  0  0  0  0  0  0  0
    2.3291   -4.0880    0.0000 H   0  0  0  0  0  0  0  0  0  0  0  0
  1  7  1  0  0  0  0 
  2  7  1  0  0  0  0 
  3 14  1  0  0  0  0 
  3 15  1  0  0  0  0 
  4 18  1  0  0  0  0 
  4 32  1  0  0  0  0 
  5 18  2  0  0  0  0 
  6  7  1  0  0  0  0 
  6  8  1  0  0  0  0 
  6  9  1  0  0  0  0 
  6 19  1  0  0  0  0 
  7  8  1  0  0  0  0 
  8 20  1  0  0  0  0 
  8 21  1  0  0  0  0 
  9 10  2  0  0  0  0 
  9 11  1  0  0  0  0 
 10 12  1  0  0  0  0 
 10 22  1  0  0  0  0 
 11 13  2  0  0  0  0 
 11 23  1  0  0  0  0 
 12 14  2  0  0  0  0 
 12 24  1  0  0  0  0 
 13 14  1  0  0  0  0 
 13 25  1  0  0  0  0 
 15 16  1  0  0  0  0 
 15 17  1  0  0  0  0 
 15 18  1  0  0  0  0 
 16 26  1  0  0  0  0 
 16 27  1  0  0  0  0 
 16 28  1  0  0  0  0 
 17 29  1  0  0  0  0 
 17 30  1  0  0  0  0 
 17 31  1  0  0  0  0 
M  END
> <cdk:Title>
2763

> <cdk:Remark>
null

> <PUBCHEM_COMPOUND_CID>
2763

> <PUBCHEM_COMPOUND_CANONICALIZED>
1

> <PUBCHEM_CACTVS_COMPLEXITY>
333

> <PUBCHEM_CACTVS_HBOND_ACCEPTOR>
3

> <PUBCHEM_CACTVS_HBOND_DONOR>
1

> <PUBCHEM_CACTVS_ROTATABLE_BOND>
4

> <PUBCHEM_CACTVS_SUBSKEYS>
AAADccBwMAAGAAAAAAAAAAAAGAAAAAAAAAAwAAAAAAAAAAABAAAAGgIACAAADUaAmIAyDoAABgCIAiDSCAICCAAgIAAIiAFGCogNJiKFMR6CeCCkwBELqAeAwPAOoAAAAAAAAABAAAAAAAAAAAAAAAAAAA==

> <PUBCHEM_IUPAC_OPENEYE_NAME>
2-[4-(2,2-dichlorocyclopropyl)phenoxy]-2-methyl-propanoic acid

> <PUBCHEM_IUPAC_CAS_NAME>
2-[4-(2,2-dichlorocyclopropyl)phenoxy]-2-methylpropanoic acid

> <PUBCHEM_IUPAC_NAME>
2-[4-(2,2-dichlorocyclopropyl)phenoxy]-2-methylpropanoic acid

> <PUBCHEM_IUPAC_SYSTEMATIC_NAME>
2-[4-[2,2-bis(chloranyl)cyclopropyl]phenoxy]-2-methyl-propanoic acid

> <PUBCHEM_IUPAC_TRADITIONAL_NAME>
2-[4-(2,2-dichlorocyclopropyl)phenoxy]-2-methyl-propionic acid

> <PUBCHEM_IUPAC_INCHI>
InChI=1S/C13H14Cl2O3/c1-12(2,11(16)17)18-9-5-3-8(4-6-9)10-7-13(10,14)15/h3-6,10H,7H2,1-2H3,(H,16,17)

> <PUBCHEM_IUPAC_INCHIKEY>
KPSRODZRAIWAKH-UHFFFAOYSA-N

> <PUBCHEM_XLOGP3_AA>
3.4

> <PUBCHEM_EXACT_MASS>
288.032

> <PUBCHEM_MOLECULAR_FORMULA>
C13H14Cl2O3

> <PUBCHEM_MOLECULAR_WEIGHT>
289.15446

> <PUBCHEM_OPENEYE_CAN_SMILES>
CC(C)(C(=O)O)OC1=CC=C(C=C1)C2CC2(Cl)Cl

> <PUBCHEM_OPENEYE_ISO_SMILES>
CC(C)(C(=O)O)OC1=CC=C(C=C1)C2CC2(Cl)Cl

> <PUBCHEM_CACTVS_TPSA>
46.5

> <PUBCHEM_MONOISOTOPIC_WEIGHT>
288.032

> <PUBCHEM_TOTAL_CHARGE>
0

> <PUBCHEM_HEAVY_ATOM_COUNT>
18

> <PUBCHEM_ATOM_DEF_STEREO_COUNT>
0

> <PUBCHEM_ATOM_UDEF_STEREO_COUNT>
1

> <PUBCHEM_BOND_DEF_STEREO_COUNT>
0

> <PUBCHEM_BOND_UDEF_STEREO_COUNT>
0

> <PUBCHEM_ISOTOPIC_ATOM_COUNT>
0

> <PUBCHEM_COMPONENT_COUNT>
1

> <PUBCHEM_CACTVS_TAUTO_COUNT>
1

> <PUBCHEM_COORDINATE_TYPE>
1
5
255

> <PUBCHEM_BONDANNOTATIONS>
10  12  8
11  13  8
12  14  8
13  14  8
6  19  3
9  10  8
9  11  8

> <DRUG_ID>
w195

> <DRUG_NAME>
Ciprofibrate

$$$$
47576
  CDK     0927151942
null
 64 68  0  0  0  0  0  0  0  0999 V2000
    3.4403   -1.6897    0.0000 Cl  0  0  0  0  0  0  0  0  0  0  0  0
    5.1724   -4.6897    0.0000 Cl  0  0  0  0  0  0  0  0  0  0  0  0
    6.1724   -0.6897    0.0000 O   0  0  0  0  0  0  0  0  0  0  0  0
    4.8633    0.2613    0.0000 O   0  0  0  0  0  0  0  0  0  0  0  0
    7.6403    1.5485    0.0000 O   0  0  0  0  0  0  0  0  0  0  0  0
   15.0409    3.0425    0.0000 O   0  0  0  0  0  0  0  0  0  0  0  0
   11.4446    2.7846    0.0000 N   0  0  0  0  0  0  0  0  0  0  0  0
   13.3467    3.4026    0.0000 N   0  0  0  0  0  0  0  0  0  0  0  0
    3.4782   -0.3296    0.0000 N   0  0  0  0  0  0  0  0  0  0  0  0
    2.0000    0.3285    0.0000 N   0  0  0  0  0  0  0  0  0  0  0  0
    5.1724   -0.6897    0.0000 C   0  0  2  0  0  0  0  0  0  0  0  0
    6.4814    0.2613    0.0000 C   0  0  1  0  0  0  0  0  0  0  0  0
    5.6724    0.8491    0.0000 C   0  0  0  0  0  0  0  0  0  0  0  0
    4.2213   -0.9988    0.0000 C   0  0  0  0  0  0  0  0  0  0  0  0
    5.1724   -1.6897    0.0000 C   0  0  0  0  0  0  0  0  0  0  0  0
    7.4324    0.5703    0.0000 C   0  0  0  0  0  0  0  0  0  0  0  0
   12.1877    2.1154    0.0000 C   0  0  0  0  0  0  0  0  0  0  0  0
   11.6525    3.7627    0.0000 C   0  0  0  0  0  0  0  0  0  0  0  0
   12.6035    4.0717    0.0000 C   0  0  0  0  0  0  0  0  0  0  0  0
   13.1388    2.4244    0.0000 C   0  0  0  0  0  0  0  0  0  0  0  0
   10.4935    2.4755    0.0000 C   0  0  0  0  0  0  0  0  0  0  0  0
    4.3063   -2.1897    0.0000 C   0  0  0  0  0  0  0  0  0  0  0  0
    6.0384   -2.1897    0.0000 C   0  0  0  0  0  0  0  0  0  0  0  0
    8.5914    1.8575    0.0000 C   0  0  0  0  0  0  0  0  0  0  0  0
   14.2977    3.7116    0.0000 C   0  0  0  0  0  0  0  0  0  0  0  0
    9.7504    3.1447    0.0000 C   0  0  0  0  0  0  0  0  0  0  0  0
   10.2856    1.4974    0.0000 C   0  0  0  0  0  0  0  0  0  0  0  0
    3.5827    0.6649    0.0000 C   0  0  0  0  0  0  0  0  0  0  0  0
    2.5000   -0.5375    0.0000 C   0  0  0  0  0  0  0  0  0  0  0  0
    8.7993    2.8356    0.0000 C   0  0  0  0  0  0  0  0  0  0  0  0
    9.3345    1.1884    0.0000 C   0  0  0  0  0  0  0  0  0  0  0  0
    4.3063   -3.1897    0.0000 C   0  0  0  0  0  0  0  0  0  0  0  0
    6.0384   -3.1897    0.0000 C   0  0  0  0  0  0  0  0  0  0  0  0
    5.1724   -3.6897    0.0000 C   0  0  0  0  0  0  0  0  0  0  0  0
    2.6691    1.0716    0.0000 C   0  0  0  0  0  0  0  0  0  0  0  0
   14.5056    4.6897    0.0000 C   0  0  0  0  0  0  0  0  0  0  0  0
    6.9198   -0.1771    0.0000 H   0  0  0  0  0  0  0  0  0  0  0  0
    6.0872    1.3098    0.0000 H   0  0  0  0  0  0  0  0  0  0  0  0
    5.2575    1.3098    0.0000 H   0  0  0  0  0  0  0  0  0  0  0  0
    3.7327   -1.3805    0.0000 H   0  0  0  0  0  0  0  0  0  0  0  0
    4.5124   -1.5462    0.0000 H   0  0  0  0  0  0  0  0  0  0  0  0
    7.5187   -0.0436    0.0000 H   0  0  0  0  0  0  0  0  0  0  0  0
    8.0520    0.5487    0.0000 H   0  0  0  0  0  0  0  0  0  0  0  0
   11.6991    1.7337    0.0000 H   0  0  0  0  0  0  0  0  0  0  0  0
   12.4788    1.5680    0.0000 H   0  0  0  0  0  0  0  0  0  0  0  0
   11.5662    4.3767    0.0000 H   0  0  0  0  0  0  0  0  0  0  0  0
   11.0328    3.7843    0.0000 H   0  0  0  0  0  0  0  0  0  0  0  0
   13.2250    1.8105    0.0000 H   0  0  0  0  0  0  0  0  0  0  0  0
   13.7584    2.4028    0.0000 H   0  0  0  0  0  0  0  0  0  0  0  0
   13.0921    4.4534    0.0000 H   0  0  0  0  0  0  0  0  0  0  0  0
   12.3125    4.6191    0.0000 H   0  0  0  0  0  0  0  0  0  0  0  0
    6.5753   -1.8797    0.0000 H   0  0  0  0  0  0  0  0  0  0  0  0
    9.8793    3.7511    0.0000 H   0  0  0  0  0  0  0  0  0  0  0  0
   10.7463    1.0825    0.0000 H   0  0  0  0  0  0  0  0  0  0  0  0
    4.1196    0.9749    0.0000 H   0  0  0  0  0  0  0  0  0  0  0  0
    2.2478   -1.1039    0.0000 H   0  0  0  0  0  0  0  0  0  0  0  0
    8.3386    3.2505    0.0000 H   0  0  0  0  0  0  0  0  0  0  0  0
    9.2056    0.5819    0.0000 H   0  0  0  0  0  0  0  0  0  0  0  0
    3.7694   -3.4997    0.0000 H   0  0  0  0  0  0  0  0  0  0  0  0
    6.5753   -3.4997    0.0000 H   0  0  0  0  0  0  0  0  0  0  0  0
    2.5402    1.6781    0.0000 H   0  0  0  0  0  0  0  0  0  0  0  0
   15.1121    4.5608    0.0000 H   0  0  0  0  0  0  0  0  0  0  0  0
   14.6345    5.2962    0.0000 H   0  0  0  0  0  0  0  0  0  0  0  0
   13.8992    4.8186    0.0000 H   0  0  0  0  0  0  0  0  0  0  0  0
  1 22  1  0  0  0  0 
  2 34  1  0  0  0  0 
  3 11  1  0  0  0  0 
  3 12  1  0  0  0  0 
  4 11  1  0  0  0  0 
  4 13  1  0  0  0  0 
  5 16  1  0  0  0  0 
  5 24  1  0  0  0  0 
  6 25  2  0  0  0  0 
  7 17  1  0  0  0  0 
  7 18  1  0  0  0  0 
  7 21  1  0  0  0  0 
  8 19  1  0  0  0  0 
  8 20  1  0  0  0  0 
  8 25  1  0  0  0  0 
  9 14  1  0  0  0  0 
  9 28  1  0  0  0  0 
  9 29  1  0  0  0  0 
 10 29  2  0  0  0  0 
 10 35  1  0  0  0  0 
 11 14  1  1  0  0  0 
 11 15  1  0  0  0  0 
 12 13  1  0  0  0  0 
 12 16  1  1  0  0  0 
 12 37  1  0  0  0  0 
 13 38  1  0  0  0  0 
 13 39  1  0  0  0  0 
 14 40  1  0  0  0  0 
 14 41  1  0  0  0  0 
 15 22  2  0  0  0  0 
 15 23  1  0  0  0  0 
 16 42  1  0  0  0  0 
 16 43  1  0  0  0  0 
 17 20  1  0  0  0  0 
 17 44  1  0  0  0  0 
 17 45  1  0  0  0  0 
 18 19  1  0  0  0  0 
 18 46  1  0  0  0  0 
 18 47  1  0  0  0  0 
 19 50  1  0  0  0  0 
 19 51  1  0  0  0  0 
 20 48  1  0  0  0  0 
 20 49  1  0  0  0  0 
 21 26  2  0  0  0  0 
 21 27  1  0  0  0  0 
 22 32  1  0  0  0  0 
 23 33  2  0  0  0  0 
 23 52  1  0  0  0  0 
 24 30  2  0  0  0  0 
 24 31  1  0  0  0  0 
 25 36  1  0  0  0  0 
 26 30  1  0  0  0  0 
 26 53  1  0  0  0  0 
 27 31  2  0  0  0  0 
 27 54  1  0  0  0  0 
 28 35  2  0  0  0  0 
 28 55  1  0  0  0  0 
 29 56  1  0  0  0  0 
 30 57  1  0  0  0  0 
 31 58  1  0  0  0  0 
 32 34  2  0  0  0  0 
 32 59  1  0  0  0  0 
 33 34  1  0  0  0  0 
 33 60  1  0  0  0  0 
 35 61  1  0  0  0  0 
 36 62  1  0  0  0  0 
 36 63  1  0  0  0  0 
 36 64  1  0  0  0  0 
M  END
> <cdk:Title>
47576

> <cdk:Remark>
null

> <PUBCHEM_COMPOUND_CID>
47576

> <PUBCHEM_COMPOUND_CANONICALIZED>
1

> <PUBCHEM_CACTVS_COMPLEXITY>
735

> <PUBCHEM_CACTVS_HBOND_ACCEPTOR>
6

> <PUBCHEM_CACTVS_HBOND_DONOR>
0

> <PUBCHEM_CACTVS_ROTATABLE_BOND>
7

> <PUBCHEM_CACTVS_SUBSKEYS>
AAADceB7uAAGAAAAAAAAAAAAAAAAAWJAAAA8YIAAAAAAAAAB0AAAHgIAAAAADB7hmiY/3pcMFACoAjV3dACCiC0xN6AJyAAefoifbiLFu5u3OCjtxhPe6CewwKAOBEAAAACBAAAIgAAAAQIAAAAAAAAAAA==

> <PUBCHEM_IUPAC_OPENEYE_NAME>
1-[4-[4-[[(2S,4R)-2-(2,4-dichlorophenyl)-2-(imidazol-1-ylmethyl)-1,3-dioxolan-4-yl]methoxy]phenyl]piperazin-1-yl]ethanone

> <PUBCHEM_IUPAC_CAS_NAME>
1-[4-[4-[[(2S,4R)-2-(2,4-dichlorophenyl)-2-(1-imidazolylmethyl)-1,3-dioxolan-4-yl]methoxy]phenyl]-1-piperazinyl]ethanone

> <PUBCHEM_IUPAC_NAME>
1-[4-[4-[[(2S,4R)-2-(2,4-dichlorophenyl)-2-(imidazol-1-ylmethyl)-1,3-dioxolan-4-yl]methoxy]phenyl]piperazin-1-yl]ethanone

> <PUBCHEM_IUPAC_SYSTEMATIC_NAME>
1-[4-[4-[[(2S,4R)-2-(2,4-dichlorophenyl)-2-(imidazol-1-ylmethyl)-1,3-dioxolan-4-yl]methoxy]phenyl]piperazin-1-yl]ethanone

> <PUBCHEM_IUPAC_TRADITIONAL_NAME>
1-[4-[4-[[(2S,4R)-2-(2,4-dichlorophenyl)-2-(imidazol-1-ylmethyl)-1,3-dioxolan-4-yl]methoxy]phenyl]piperazino]ethanone

> <PUBCHEM_IUPAC_INCHI>
InChI=1S/C26H28Cl2N4O4/c1-19(33)31-10-12-32(13-11-31)21-3-5-22(6-4-21)34-15-23-16-35-26(36-23,17-30-9-8-29-18-30)24-7-2-20(27)14-25(24)28/h2-9,14,18,23H,10-13,15-17H2,1H3/t23-,26-/m1/s1

> <PUBCHEM_IUPAC_INCHIKEY>
XMAYWYJOQHXEEK-ZEQKJWHPSA-N

> <PUBCHEM_XLOGP3>
4.3

> <PUBCHEM_EXACT_MASS>
530.148761

> <PUBCHEM_MOLECULAR_FORMULA>
C26H28Cl2N4O4

> <PUBCHEM_MOLECULAR_WEIGHT>
531.43092

> <PUBCHEM_OPENEYE_CAN_SMILES>
CC(=O)N1CCN(CC1)C2=CC=C(C=C2)OCC3COC(O3)(CN4C=CN=C4)C5=C(C=C(C=C5)Cl)Cl

> <PUBCHEM_OPENEYE_ISO_SMILES>
CC(=O)N1CCN(CC1)C2=CC=C(C=C2)OC[C@@H]3CO[C@@](O3)(CN4C=CN=C4)C5=C(C=C(C=C5)Cl)Cl

> <PUBCHEM_CACTVS_TPSA>
69.1

> <PUBCHEM_MONOISOTOPIC_WEIGHT>
530.148761

> <PUBCHEM_TOTAL_CHARGE>
0

> <PUBCHEM_HEAVY_ATOM_COUNT>
36

> <PUBCHEM_ATOM_DEF_STEREO_COUNT>
2

> <PUBCHEM_ATOM_UDEF_STEREO_COUNT>
0

> <PUBCHEM_BOND_DEF_STEREO_COUNT>
0

> <PUBCHEM_BOND_UDEF_STEREO_COUNT>
0

> <PUBCHEM_ISOTOPIC_ATOM_COUNT>
0

> <PUBCHEM_COMPONENT_COUNT>
1

> <PUBCHEM_CACTVS_TAUTO_COUNT>
1

> <PUBCHEM_COORDINATE_TYPE>
1
5
255

> <PUBCHEM_BONDANNOTATIONS>
10  29  8
10  35  8
11  14  5
12  16  5
15  22  8
15  23  8
21  26  8
21  27  8
22  32  8
23  33  8
24  30  8
24  31  8
26  30  8
27  31  8
28  35  8
32  34  8
33  34  8
9  28  8
9  29  8

> <DRUG_ID>
w196

> <DRUG_NAME>
Ketoconazole

$$$$
5284513
  CDK     0927151942
null
 50 50  0  0  0  0  0  0  0  0999 V2000
    3.7320   -5.3100    0.0000 O   0  0  0  0  0  0  0  0  0  0  0  0
    8.0622    5.1900    0.0000 O   0  0  0  0  0  0  0  0  0  0  0  0
    6.3301    5.1900    0.0000 O   0  0  0  0  0  0  0  0  0  0  0  0
    2.8660   -2.8100    0.0000 C   0  0  0  0  0  0  0  0  0  0  0  0
    3.7320   -2.3100    0.0000 C   0  0  0  0  0  0  0  0  0  0  0  0
    2.8660   -3.8100    0.0000 C   0  0  0  0  0  0  0  0  0  0  0  0
    4.5981   -2.8100    0.0000 C   0  0  0  0  0  0  0  0  0  0  0  0
    3.7320   -4.3100    0.0000 C   0  0  0  0  0  0  0  0  0  0  0  0
    4.5981   -3.8100    0.0000 C   0  0  0  0  0  0  0  0  0  0  0  0
    2.0000   -2.3100    0.0000 C   0  0  0  0  0  0  0  0  0  0  0  0
    3.7320   -1.3100    0.0000 C   0  0  0  0  0  0  0  0  0  0  0  0
    2.0000   -4.3100    0.0000 C   0  0  0  0  0  0  0  0  0  0  0  0
    5.4641   -2.3100    0.0000 C   0  0  0  0  0  0  0  0  0  0  0  0
    4.5981   -0.8100    0.0000 C   0  0  0  0  0  0  0  0  0  0  0  0
    4.5981    0.1900    0.0000 C   0  0  0  0  0  0  0  0  0  0  0  0
    4.5981   -5.8100    0.0000 C   0  0  0  0  0  0  0  0  0  0  0  0
    3.7320    0.6900    0.0000 C   0  0  0  0  0  0  0  0  0  0  0  0
    5.4641    0.6900    0.0000 C   0  0  0  0  0  0  0  0  0  0  0  0
    5.4641    1.6900    0.0000 C   0  0  0  0  0  0  0  0  0  0  0  0
    6.3301    2.1900    0.0000 C   0  0  0  0  0  0  0  0  0  0  0  0
    6.3301    3.1900    0.0000 C   0  0  0  0  0  0  0  0  0  0  0  0
    5.4641    3.6900    0.0000 C   0  0  0  0  0  0  0  0  0  0  0  0
    7.1962    3.6900    0.0000 C   0  0  0  0  0  0  0  0  0  0  0  0
    7.1962    4.6900    0.0000 C   0  0  0  0  0  0  0  0  0  0  0  0
    5.1350   -4.1200    0.0000 H   0  0  0  0  0  0  0  0  0  0  0  0
    2.3100   -1.7731    0.0000 H   0  0  0  0  0  0  0  0  0  0  0  0
    1.4631   -2.0000    0.0000 H   0  0  0  0  0  0  0  0  0  0  0  0
    1.6900   -2.8469    0.0000 H   0  0  0  0  0  0  0  0  0  0  0  0
    3.1951   -1.0000    0.0000 H   0  0  0  0  0  0  0  0  0  0  0  0
    1.6900   -3.7731    0.0000 H   0  0  0  0  0  0  0  0  0  0  0  0
    1.4631   -4.6200    0.0000 H   0  0  0  0  0  0  0  0  0  0  0  0
    2.3100   -4.8469    0.0000 H   0  0  0  0  0  0  0  0  0  0  0  0
    5.7741   -2.8469    0.0000 H   0  0  0  0  0  0  0  0  0  0  0  0
    6.0010   -2.0000    0.0000 H   0  0  0  0  0  0  0  0  0  0  0  0
    5.1541   -1.7731    0.0000 H   0  0  0  0  0  0  0  0  0  0  0  0
    5.1350   -1.1200    0.0000 H   0  0  0  0  0  0  0  0  0  0  0  0
    4.2881   -6.3469    0.0000 H   0  0  0  0  0  0  0  0  0  0  0  0
    5.1350   -6.1200    0.0000 H   0  0  0  0  0  0  0  0  0  0  0  0
    4.9081   -5.2731    0.0000 H   0  0  0  0  0  0  0  0  0  0  0  0
    4.0420    1.2269    0.0000 H   0  0  0  0  0  0  0  0  0  0  0  0
    3.1951    1.0000    0.0000 H   0  0  0  0  0  0  0  0  0  0  0  0
    3.4220    0.1531    0.0000 H   0  0  0  0  0  0  0  0  0  0  0  0
    6.0010    0.3800    0.0000 H   0  0  0  0  0  0  0  0  0  0  0  0
    4.9272    2.0000    0.0000 H   0  0  0  0  0  0  0  0  0  0  0  0
    6.8671    1.8800    0.0000 H   0  0  0  0  0  0  0  0  0  0  0  0
    5.7741    4.2269    0.0000 H   0  0  0  0  0  0  0  0  0  0  0  0
    4.9272    4.0000    0.0000 H   0  0  0  0  0  0  0  0  0  0  0  0
    5.1541    3.1531    0.0000 H   0  0  0  0  0  0  0  0  0  0  0  0
    7.7331    3.3800    0.0000 H   0  0  0  0  0  0  0  0  0  0  0  0
    8.0622    5.8100    0.0000 H   0  0  0  0  0  0  0  0  0  0  0  0
  1  8  1  0  0  0  0 
  1 16  1  0  0  0  0 
  2 24  1  0  0  0  0 
  2 50  1  0  0  0  0 
  3 24  2  0  0  0  0 
  4  5  2  0  0  0  0 
  4  6  1  0  0  0  0 
  4 10  1  0  0  0  0 
  5  7  1  0  0  0  0 
  5 11  1  0  0  0  0 
  6  8  2  0  0  0  0 
  6 12  1  0  0  0  0 
  7  9  2  0  0  0  0 
  7 13  1  0  0  0  0 
  8  9  1  0  0  0  0 
  9 25  1  0  0  0  0 
 10 26  1  0  0  0  0 
 10 27  1  0  0  0  0 
 10 28  1  0  0  0  0 
 11 14  2  0  0  0  0 
 11 29  1  0  0  0  0 
 12 30  1  0  0  0  0 
 12 31  1  0  0  0  0 
 12 32  1  0  0  0  0 
 13 33  1  0  0  0  0 
 13 34  1  0  0  0  0 
 13 35  1  0  0  0  0 
 14 15  1  0  0  0  0 
 14 36  1  0  0  0  0 
 15 17  1  0  0  0  0 
 15 18  2  0  0  0  0 
 16 37  1  0  0  0  0 
 16 38  1  0  0  0  0 
 16 39  1  0  0  0  0 
 17 40  1  0  0  0  0 
 17 41  1  0  0  0  0 
 17 42  1  0  0  0  0 
 18 19  1  0  0  0  0 
 18 43  1  0  0  0  0 
 19 20  2  0  0  0  0 
 19 44  1  0  0  0  0 
 20 21  1  0  0  0  0 
 20 45  1  0  0  0  0 
 21 22  1  0  0  0  0 
 21 23  2  0  0  0  0 
 22 46  1  0  0  0  0 
 22 47  1  0  0  0  0 
 22 48  1  0  0  0  0 
 23 24  1  0  0  0  0 
 23 49  1  0  0  0  0 
M  END
> <cdk:Title>
5284513

> <cdk:Remark>
null

> <PUBCHEM_COMPOUND_CID>
5284513

> <PUBCHEM_COMPOUND_CANONICALIZED>
1

> <PUBCHEM_CACTVS_COMPLEXITY>
539

> <PUBCHEM_CACTVS_HBOND_ACCEPTOR>
3

> <PUBCHEM_CACTVS_HBOND_DONOR>
1

> <PUBCHEM_CACTVS_ROTATABLE_BOND>
6

> <PUBCHEM_CACTVS_SUBSKEYS>
AAADceB4MAAAAAAAAAAAAAAAAAAAAAAAAAAwAAAAAAAAAAABAAAAGgAACAAADASAmAIyDoAABgCIAiDSCAACCAAgIAAIiAAGCMgMJiKEMRqAMCAkwBEIuQeAwPAO4AADAAAYAADAAAYAADAAAAAAAAAAAA==

> <PUBCHEM_IUPAC_OPENEYE_NAME>
(2E,4E,6E,8E)-9-(4-methoxy-2,3,6-trimethyl-phenyl)-3,7-dimethyl-nona-2,4,6,8-tetraenoic acid

> <PUBCHEM_IUPAC_CAS_NAME>
(2E,4E,6E,8E)-9-(4-methoxy-2,3,6-trimethylphenyl)-3,7-dimethylnona-2,4,6,8-tetraenoic acid

> <PUBCHEM_IUPAC_NAME>
(2E,4E,6E,8E)-9-(4-methoxy-2,3,6-trimethylphenyl)-3,7-dimethylnona-2,4,6,8-tetraenoic acid

> <PUBCHEM_IUPAC_SYSTEMATIC_NAME>
(2E,4E,6E,8E)-9-(4-methoxy-2,3,6-trimethyl-phenyl)-3,7-dimethyl-nona-2,4,6,8-tetraenoic acid

> <PUBCHEM_IUPAC_TRADITIONAL_NAME>
(2E,4E,6E,8E)-9-(4-methoxy-2,3,6-trimethyl-phenyl)-3,7-dimethyl-nona-2,4,6,8-tetraenoic acid

> <PUBCHEM_IUPAC_INCHI>
InChI=1S/C21H26O3/c1-14(8-7-9-15(2)12-21(22)23)10-11-19-16(3)13-20(24-6)18(5)17(19)4/h7-13H,1-6H3,(H,22,23)/b9-7+,11-10+,14-8+,15-12+

> <PUBCHEM_IUPAC_INCHIKEY>
IHUNBGSDBOWDMA-AQFIFDHZSA-N

> <PUBCHEM_XLOGP3_AA>
6.1

> <PUBCHEM_EXACT_MASS>
326.188195

> <PUBCHEM_MOLECULAR_FORMULA>
C21H26O3

> <PUBCHEM_MOLECULAR_WEIGHT>
326.42934

> <PUBCHEM_OPENEYE_CAN_SMILES>
CC1=CC(=C(C(=C1C=CC(=CC=CC(=CC(=O)O)C)C)C)C)OC

> <PUBCHEM_OPENEYE_ISO_SMILES>
CC1=CC(=C(C(=C1/C=C/C(=C/C=C/C(=C/C(=O)O)/C)/C)C)C)OC

> <PUBCHEM_CACTVS_TPSA>
46.5

> <PUBCHEM_MONOISOTOPIC_WEIGHT>
326.188195

> <PUBCHEM_TOTAL_CHARGE>
0

> <PUBCHEM_HEAVY_ATOM_COUNT>
24

> <PUBCHEM_ATOM_DEF_STEREO_COUNT>
0

> <PUBCHEM_ATOM_UDEF_STEREO_COUNT>
0

> <PUBCHEM_BOND_DEF_STEREO_COUNT>
4

> <PUBCHEM_BOND_UDEF_STEREO_COUNT>
0

> <PUBCHEM_ISOTOPIC_ATOM_COUNT>
0

> <PUBCHEM_COMPONENT_COUNT>
1

> <PUBCHEM_CACTVS_TAUTO_COUNT>
1

> <PUBCHEM_COORDINATE_TYPE>
1
5
255

> <PUBCHEM_BONDANNOTATIONS>
4  5  8
4  6  8
5  7  8
6  8  8
7  9  8
8  9  8

> <DRUG_ID>
w197

> <DRUG_NAME>
Acitretin

$$$$
5282379
  CDK     0927151942
null
 50 50  0  0  0  0  0  0  0  0999 V2000
    9.0622    3.6900    0.0000 O   0  0  0  0  0  0  0  0  0  0  0  0
    8.1962    2.1900    0.0000 O   0  0  0  0  0  0  0  0  0  0  0  0
    3.0000   -2.8100    0.0000 C   0  0  0  0  0  0  0  0  0  0  0  0
    3.0000   -3.8100    0.0000 C   0  0  0  0  0  0  0  0  0  0  0  0
    3.8660   -4.3100    0.0000 C   0  0  0  0  0  0  0  0  0  0  0  0
    3.8660   -2.3100    0.0000 C   0  0  0  0  0  0  0  0  0  0  0  0
    4.7320   -3.8100    0.0000 C   0  0  0  0  0  0  0  0  0  0  0  0
    4.7320   -2.8100    0.0000 C   0  0  0  0  0  0  0  0  0  0  0  0
    2.0000   -2.8100    0.0000 C   0  0  0  0  0  0  0  0  0  0  0  0
    2.5000   -1.9440    0.0000 C   0  0  0  0  0  0  0  0  0  0  0  0
    3.8660   -1.3100    0.0000 C   0  0  0  0  0  0  0  0  0  0  0  0
    5.5981   -2.3100    0.0000 C   0  0  0  0  0  0  0  0  0  0  0  0
    4.7320   -0.8100    0.0000 C   0  0  0  0  0  0  0  0  0  0  0  0
    4.7320    0.1900    0.0000 C   0  0  0  0  0  0  0  0  0  0  0  0
    3.8660    0.6900    0.0000 C   0  0  0  0  0  0  0  0  0  0  0  0
    5.5981    0.6900    0.0000 C   0  0  0  0  0  0  0  0  0  0  0  0
    5.5981    1.6900    0.0000 C   0  0  0  0  0  0  0  0  0  0  0  0
    6.4641    2.1900    0.0000 C   0  0  0  0  0  0  0  0  0  0  0  0
    6.4641    3.1900    0.0000 C   0  0  0  0  0  0  0  0  0  0  0  0
    5.5981    3.6900    0.0000 C   0  0  0  0  0  0  0  0  0  0  0  0
    7.3301    3.6900    0.0000 C   0  0  0  0  0  0  0  0  0  0  0  0
    8.1962    3.1900    0.0000 C   0  0  0  0  0  0  0  0  0  0  0  0
    2.3894   -3.7023    0.0000 H   0  0  0  0  0  0  0  0  0  0  0  0
    2.7880   -4.3926    0.0000 H   0  0  0  0  0  0  0  0  0  0  0  0
    3.4675   -4.7850    0.0000 H   0  0  0  0  0  0  0  0  0  0  0  0
    4.2646   -4.7850    0.0000 H   0  0  0  0  0  0  0  0  0  0  0  0
    4.9441   -4.3926    0.0000 H   0  0  0  0  0  0  0  0  0  0  0  0
    5.3426   -3.7023    0.0000 H   0  0  0  0  0  0  0  0  0  0  0  0
    2.0000   -2.1900    0.0000 H   0  0  0  0  0  0  0  0  0  0  0  0
    3.0369   -1.6340    0.0000 H   0  0  0  0  0  0  0  0  0  0  0  0
    1.3800   -2.8100    0.0000 H   0  0  0  0  0  0  0  0  0  0  0  0
    2.0000   -3.4300    0.0000 H   0  0  0  0  0  0  0  0  0  0  0  0
    2.1900   -1.4070    0.0000 H   0  0  0  0  0  0  0  0  0  0  0  0
    1.9631   -2.2540    0.0000 H   0  0  0  0  0  0  0  0  0  0  0  0
    3.3291   -1.0000    0.0000 H   0  0  0  0  0  0  0  0  0  0  0  0
    5.9081   -2.8469    0.0000 H   0  0  0  0  0  0  0  0  0  0  0  0
    6.1350   -2.0000    0.0000 H   0  0  0  0  0  0  0  0  0  0  0  0
    5.2881   -1.7731    0.0000 H   0  0  0  0  0  0  0  0  0  0  0  0
    5.2690   -1.1200    0.0000 H   0  0  0  0  0  0  0  0  0  0  0  0
    4.1760    1.2269    0.0000 H   0  0  0  0  0  0  0  0  0  0  0  0
    3.3291    1.0000    0.0000 H   0  0  0  0  0  0  0  0  0  0  0  0
    3.5560    0.1531    0.0000 H   0  0  0  0  0  0  0  0  0  0  0  0
    6.1350    0.3800    0.0000 H   0  0  0  0  0  0  0  0  0  0  0  0
    5.0611    2.0000    0.0000 H   0  0  0  0  0  0  0  0  0  0  0  0
    7.0010    1.8800    0.0000 H   0  0  0  0  0  0  0  0  0  0  0  0
    5.9081    4.2269    0.0000 H   0  0  0  0  0  0  0  0  0  0  0  0
    5.0611    4.0000    0.0000 H   0  0  0  0  0  0  0  0  0  0  0  0
    5.2881    3.1531    0.0000 H   0  0  0  0  0  0  0  0  0  0  0  0
    7.3301    4.3100    0.0000 H   0  0  0  0  0  0  0  0  0  0  0  0
    9.5991    3.3800    0.0000 H   0  0  0  0  0  0  0  0  0  0  0  0
  1 22  1  0  0  0  0 
  1 50  1  0  0  0  0 
  2 22  2  0  0  0  0 
  3  4  1  0  0  0  0 
  3  6  1  0  0  0  0 
  3  9  1  0  0  0  0 
  3 10  1  0  0  0  0 
  4  5  1  0  0  0  0 
  4 23  1  0  0  0  0 
  4 24  1  0  0  0  0 
  5  7  1  0  0  0  0 
  5 25  1  0  0  0  0 
  5 26  1  0  0  0  0 
  6  8  2  0  0  0  0 
  6 11  1  0  0  0  0 
  7  8  1  0  0  0  0 
  7 27  1  0  0  0  0 
  7 28  1  0  0  0  0 
  8 12  1  0  0  0  0 
  9 29  1  0  0  0  0 
  9 31  1  0  0  0  0 
  9 32  1  0  0  0  0 
 10 30  1  0  0  0  0 
 10 33  1  0  0  0  0 
 10 34  1  0  0  0  0 
 11 13  2  0  0  0  0 
 11 35  1  0  0  0  0 
 12 36  1  0  0  0  0 
 12 37  1  0  0  0  0 
 12 38  1  0  0  0  0 
 13 14  1  0  0  0  0 
 13 39  1  0  0  0  0 
 14 15  1  0  0  0  0 
 14 16  2  0  0  0  0 
 15 40  1  0  0  0  0 
 15 41  1  0  0  0  0 
 15 42  1  0  0  0  0 
 16 17  1  0  0  0  0 
 16 43  1  0  0  0  0 
 17 18  2  0  0  0  0 
 17 44  1  0  0  0  0 
 18 19  1  0  0  0  0 
 18 45  1  0  0  0  0 
 19 20  1  0  0  0  0 
 19 21  2  0  0  0  0 
 20 46  1  0  0  0  0 
 20 47  1  0  0  0  0 
 20 48  1  0  0  0  0 
 21 22  1  0  0  0  0 
 21 49  1  0  0  0  0 
M  END
> <cdk:Title>
5282379

> <cdk:Remark>
null

> <PUBCHEM_COMPOUND_CID>
5282379

> <PUBCHEM_COMPOUND_CANONICALIZED>
1

> <PUBCHEM_CACTVS_COMPLEXITY>
567

> <PUBCHEM_CACTVS_HBOND_ACCEPTOR>
2

> <PUBCHEM_CACTVS_HBOND_DONOR>
1

> <PUBCHEM_CACTVS_ROTATABLE_BOND>
5

> <PUBCHEM_CACTVS_SUBSKEYS>
AAADceB4MAAAAAAAAAAAAAAAAAAAAAAAAAAgAAAAAAAAAAAAAAAAGgAACAAADgCAgAACCAAAAgCIAiDSCAAAAAAgAAAICAAAAEgIBAIAAQAAEAAAgAAIkQMAgMAPAAAAAAAAAAAAAAAAAAAAAAAAAAAAAA==

> <PUBCHEM_IUPAC_OPENEYE_NAME>
(2Z,4E,6E,8E)-3,7-dimethyl-9-(2,6,6-trimethylcyclohexen-1-yl)nona-2,4,6,8-tetraenoic acid

> <PUBCHEM_IUPAC_CAS_NAME>
(2Z,4E,6E,8E)-3,7-dimethyl-9-(2,6,6-trimethyl-1-cyclohexenyl)nona-2,4,6,8-tetraenoic acid

> <PUBCHEM_IUPAC_NAME>
(2Z,4E,6E,8E)-3,7-dimethyl-9-(2,6,6-trimethylcyclohexen-1-yl)nona-2,4,6,8-tetraenoic acid

> <PUBCHEM_IUPAC_SYSTEMATIC_NAME>
(2Z,4E,6E,8E)-3,7-dimethyl-9-(2,6,6-trimethylcyclohexen-1-yl)nona-2,4,6,8-tetraenoic acid

> <PUBCHEM_IUPAC_TRADITIONAL_NAME>
(2Z,4E,6E,8E)-3,7-dimethyl-9-(2,6,6-trimethylcyclohexen-1-yl)nona-2,4,6,8-tetraenoic acid

> <PUBCHEM_IUPAC_INCHI>
InChI=1S/C20H28O2/c1-15(8-6-9-16(2)14-19(21)22)11-12-18-17(3)10-7-13-20(18,4)5/h6,8-9,11-12,14H,7,10,13H2,1-5H3,(H,21,22)/b9-6+,12-11+,15-8+,16-14-

> <PUBCHEM_IUPAC_INCHIKEY>
SHGAZHPCJJPHSC-XFYACQKRSA-N

> <PUBCHEM_XLOGP3>
6.3

> <PUBCHEM_EXACT_MASS>
300.20893

> <PUBCHEM_MOLECULAR_FORMULA>
C20H28O2

> <PUBCHEM_MOLECULAR_WEIGHT>
300.43512

> <PUBCHEM_OPENEYE_CAN_SMILES>
CC1=C(C(CCC1)(C)C)C=CC(=CC=CC(=CC(=O)O)C)C

> <PUBCHEM_OPENEYE_ISO_SMILES>
CC1=C(C(CCC1)(C)C)/C=C/C(=C/C=C/C(=C\C(=O)O)/C)/C

> <PUBCHEM_CACTVS_TPSA>
37.3

> <PUBCHEM_MONOISOTOPIC_WEIGHT>
300.20893

> <PUBCHEM_TOTAL_CHARGE>
0

> <PUBCHEM_HEAVY_ATOM_COUNT>
22

> <PUBCHEM_ATOM_DEF_STEREO_COUNT>
0

> <PUBCHEM_ATOM_UDEF_STEREO_COUNT>
0

> <PUBCHEM_BOND_DEF_STEREO_COUNT>
4

> <PUBCHEM_BOND_UDEF_STEREO_COUNT>
0

> <PUBCHEM_ISOTOPIC_ATOM_COUNT>
0

> <PUBCHEM_COMPONENT_COUNT>
1

> <PUBCHEM_CACTVS_TAUTO_COUNT>
40

> <PUBCHEM_COORDINATE_TYPE>
1
5
255

> <DRUG_ID>
w198

> <DRUG_NAME>
Isotretinoin

$$$$
31100
  CDK     0927151942
null
 92 97  0  0  0  0  0  0  0  0999 V2000
   12.7776    1.9944    0.0000 Br  0  0  0  0  0  0  0  0  0  0  0  0
    1.4030    6.2152    0.0000 S   0  0  0  0  0  0  0  0  0  0  0  0
    6.3961    8.2601    0.0000 O   0  0  0  0  0  0  0  0  0  0  0  0
    5.7996    9.2715    0.0000 O   0  0  0  0  0  0  0  0  0  0  0  0
    8.5485   11.6047    0.0000 O   0  0  0  0  0  0  0  0  0  0  0  0
    8.9118    7.6933    0.0000 O   0  0  0  0  0  0  0  0  0  0  0  0
    6.7811    5.2310    0.0000 O   0  0  0  0  0  0  0  0  0  0  0  0
    2.2690    6.7152    0.0000 O   0  0  0  0  0  0  0  0  0  0  0  0
    0.9030    7.0813    0.0000 O   0  0  0  0  0  0  0  0  0  0  0  0
    1.9030    5.3492    0.0000 O   0  0  0  0  0  0  0  0  0  0  0  0
    7.7895    9.0702    0.0000 N   0  0  0  0  0  0  0  0  0  0  0  0
    6.9690   10.8941    0.0000 N   0  0  0  0  0  0  0  0  0  0  0  0
    7.6413    6.7344    0.0000 N   0  0  0  0  0  0  0  0  0  0  0  0
   10.3132    5.2308    0.0000 N   0  0  3  0  0  0  0  0  0  0  0  0
   11.3012    1.0406    0.0000 N   0  0  0  0  0  0  0  0  0  0  0  0
    6.3843   10.0828    0.0000 C   0  0  2  0  0  0  0  0  0  0  0  0
    6.7946    9.1708    0.0000 C   0  0  2  0  0  0  0  0  0  0  0  0
    8.3741    9.8814    0.0000 C   0  0  2  0  0  0  0  0  0  0  0  0
    5.4385   10.3888    0.0000 C   0  0  0  0  0  0  0  0  0  0  0  0
    7.1380    7.5984    0.0000 C   0  0  1  0  0  0  0  0  0  0  0  0
    6.3795   11.6945    0.0000 C   0  0  0  0  0  0  0  0  0  0  0  0
    5.4355   11.3829    0.0000 C   0  0  0  0  0  0  0  0  0  0  0  0
    7.9639   10.7934    0.0000 C   0  0  0  0  0  0  0  0  0  0  0  0
    7.9974    8.0980    0.0000 C   0  0  0  0  0  0  0  0  0  0  0  0
    9.3690    9.7807    0.0000 C   0  0  0  0  0  0  0  0  0  0  0  0
    6.4717    6.8528    0.0000 C   0  0  0  0  0  0  0  0  0  0  0  0
    9.9537   10.5920    0.0000 C   0  0  0  0  0  0  0  0  0  0  0  0
    5.4928    7.0569    0.0000 C   0  0  0  0  0  0  0  0  0  0  0  0
    6.7844    5.9028    0.0000 C   0  0  0  0  0  0  0  0  0  0  0  0
    7.6452    5.7344    0.0000 C   0  0  0  0  0  0  0  0  0  0  0  0
    8.5131    5.2377    0.0000 C   0  0  1  0  0  0  0  0  0  0  0  0
   10.2972    4.1893    0.0000 C   0  0  1  0  0  0  0  0  0  0  0  0
   10.9486   10.4913    0.0000 C   0  0  0  0  0  0  0  0  0  0  0  0
    9.5435   11.5040    0.0000 C   0  0  0  0  0  0  0  0  0  0  0  0
    9.4152    5.7585    0.0000 C   0  0  0  0  0  0  0  0  0  0  0  0
    9.4311    3.6893    0.0000 C   0  0  0  0  0  0  0  0  0  0  0  0
    8.5211    4.1961    0.0000 C   0  0  0  0  0  0  0  0  0  0  0  0
   11.1632    3.6893    0.0000 C   0  0  0  0  0  0  0  0  0  0  0  0
    9.4311    2.6893    0.0000 C   0  0  0  0  0  0  0  0  0  0  0  0
   11.1632    2.6893    0.0000 C   0  0  0  0  0  0  0  0  0  0  0  0
   10.2972    2.1893    0.0000 C   0  0  0  0  0  0  0  0  0  0  0  0
   11.1850    5.7207    0.0000 C   0  0  0  0  0  0  0  0  0  0  0  0
   10.3132    1.1478    0.0000 C   0  0  0  0  0  0  0  0  0  0  0  0
   11.7811    1.9109    0.0000 C   0  0  0  0  0  0  0  0  0  0  0  0
    8.5211    2.1824    0.0000 C   0  0  0  0  0  0  0  0  0  0  0  0
    9.4152    0.6200    0.0000 C   0  0  0  0  0  0  0  0  0  0  0  0
    8.5131    1.1408    0.0000 C   0  0  0  0  0  0  0  0  0  0  0  0
    0.5369    5.7152    0.0000 C   0  0  0  0  0  0  0  0  0  0  0  0
    5.8172    9.4497    0.0000 H   0  0  0  0  0  0  0  0  0  0  0  0
    8.6285    9.3160    0.0000 H   0  0  0  0  0  0  0  0  0  0  0  0
    4.8217   10.4521    0.0000 H   0  0  0  0  0  0  0  0  0  0  0  0
    5.3107    9.7821    0.0000 H   0  0  0  0  0  0  0  0  0  0  0  0
    6.9146   12.0077    0.0000 H   0  0  0  0  0  0  0  0  0  0  0  0
    6.1243   12.2596    0.0000 H   0  0  0  0  0  0  0  0  0  0  0  0
    5.3041   11.9888    0.0000 H   0  0  0  0  0  0  0  0  0  0  0  0
    4.8191   11.3159    0.0000 H   0  0  0  0  0  0  0  0  0  0  0  0
    9.2004    9.1841    0.0000 H   0  0  0  0  0  0  0  0  0  0  0  0
    9.9274    9.5111    0.0000 H   0  0  0  0  0  0  0  0  0  0  0  0
    6.2779    7.4417    0.0000 H   0  0  0  0  0  0  0  0  0  0  0  0
    8.1770    7.0464    0.0000 H   0  0  0  0  0  0  0  0  0  0  0  0
    5.4372    8.7686    0.0000 H   0  0  0  0  0  0  0  0  0  0  0  0
   10.2081   10.0266    0.0000 H   0  0  0  0  0  0  0  0  0  0  0  0
    5.6193    7.6639    0.0000 H   0  0  0  0  0  0  0  0  0  0  0  0
    4.8858    7.1835    0.0000 H   0  0  0  0  0  0  0  0  0  0  0  0
    5.3662    6.4500    0.0000 H   0  0  0  0  0  0  0  0  0  0  0  0
    6.1955    5.7090    0.0000 H   0  0  0  0  0  0  0  0  0  0  0  0
    6.9783    5.3139    0.0000 H   0  0  0  0  0  0  0  0  0  0  0  0
    7.3734    6.0967    0.0000 H   0  0  0  0  0  0  0  0  0  0  0  0
    7.9780    4.9246    0.0000 H   0  0  0  0  0  0  0  0  0  0  0  0
   11.0365    4.6086    0.0000 H   0  0  0  0  0  0  0  0  0  0  0  0
    9.8162    6.2314    0.0000 H   0  0  0  0  0  0  0  0  0  0  0  0
    9.0179    6.2345    0.0000 H   0  0  0  0  0  0  0  0  0  0  0  0
   10.8862    9.8745    0.0000 H   0  0  0  0  0  0  0  0  0  0  0  0
   11.5655   10.4289    0.0000 H   0  0  0  0  0  0  0  0  0  0  0  0
   11.0111   11.1082    0.0000 H   0  0  0  0  0  0  0  0  0  0  0  0
   10.1089   11.7583    0.0000 H   0  0  0  0  0  0  0  0  0  0  0  0
    9.2891   12.0694    0.0000 H   0  0  0  0  0  0  0  0  0  0  0  0
    8.9780   11.2496    0.0000 H   0  0  0  0  0  0  0  0  0  0  0  0
    7.9878    3.8799    0.0000 H   0  0  0  0  0  0  0  0  0  0  0  0
   11.7738    3.5816    0.0000 H   0  0  0  0  0  0  0  0  0  0  0  0
   11.3752    4.2719    0.0000 H   0  0  0  0  0  0  0  0  0  0  0  0
   11.4887    5.1802    0.0000 H   0  0  0  0  0  0  0  0  0  0  0  0
   11.7255    6.0245    0.0000 H   0  0  0  0  0  0  0  0  0  0  0  0
   10.8812    6.2612    0.0000 H   0  0  0  0  0  0  0  0  0  0  0  0
    7.9878    2.4986    0.0000 H   0  0  0  0  0  0  0  0  0  0  0  0
   11.5872    0.4905    0.0000 H   0  0  0  0  0  0  0  0  0  0  0  0
    9.4176    0.0000    0.0000 H   0  0  0  0  0  0  0  0  0  0  0  0
    7.9750    0.8329    0.0000 H   0  0  0  0  0  0  0  0  0  0  0  0
    0.2269    6.2522    0.0000 H   0  0  0  0  0  0  0  0  0  0  0  0
    0.0000    5.4052    0.0000 H   0  0  0  0  0  0  0  0  0  0  0  0
    0.8469    5.1783    0.0000 H   0  0  0  0  0  0  0  0  0  0  0  0
    2.8059    6.4052    0.0000 H   0  0  0  0  0  0  0  0  0  0  0  0
  1 44  1  0  0  0  0 
  2  8  1  0  0  0  0 
  2  9  2  0  0  0  0 
  2 10  2  0  0  0  0 
  2 48  1  0  0  0  0 
  3 17  1  0  0  0  0 
  3 20  1  0  0  0  0 
 17  4  1  6  0  0  0 
  4 61  1  0  0  0  0 
  5 23  2  0  0  0  0 
  6 24  2  0  0  0  0 
  7 30  2  0  0  0  0 
  8 92  1  0  0  0  0 
 11 17  1  0  0  0  0 
 11 18  1  0  0  0  0 
 11 24  1  0  0  0  0 
 12 16  1  0  0  0  0 
 12 21  1  0  0  0  0 
 12 23  1  0  0  0  0 
 20 13  1  6  0  0  0 
 13 30  1  0  0  0  0 
 13 60  1  0  0  0  0 
 14 32  1  0  0  0  0 
 14 35  1  0  0  0  0 
 14 42  1  0  0  0  0 
 15 43  1  0  0  0  0 
 15 44  1  0  0  0  0 
 15 86  1  0  0  0  0 
 16 17  1  0  0  0  0 
 16 19  1  0  0  0  0 
 16 49  1  1  0  0  0 
 18 23  1  0  0  0  0 
 18 25  1  6  0  0  0 
 18 50  1  0  0  0  0 
 19 22  1  0  0  0  0 
 19 51  1  0  0  0  0 
 19 52  1  0  0  0  0 
 20 24  1  0  0  0  0 
 20 26  1  0  0  0  0 
 21 22  1  0  0  0  0 
 21 53  1  0  0  0  0 
 21 54  1  0  0  0  0 
 22 55  1  0  0  0  0 
 22 56  1  0  0  0  0 
 25 27  1  0  0  0  0 
 25 57  1  0  0  0  0 
 25 58  1  0  0  0  0 
 26 28  1  0  0  0  0 
 26 29  1  0  0  0  0 
 26 59  1  0  0  0  0 
 27 33  1  0  0  0  0 
 27 34  1  0  0  0  0 
 27 62  1  0  0  0  0 
 28 63  1  0  0  0  0 
 28 64  1  0  0  0  0 
 28 65  1  0  0  0  0 
 29 66  1  0  0  0  0 
 29 67  1  0  0  0  0 
 29 68  1  0  0  0  0 
 31 30  1  1  0  0  0 
 31 35  1  0  0  0  0 
 31 37  1  0  0  0  0 
 31 69  1  0  0  0  0 
 32 36  1  0  0  0  0 
 32 38  1  0  0  0  0 
 32 70  1  1  0  0  0 
 33 73  1  0  0  0  0 
 33 74  1  0  0  0  0 
 33 75  1  0  0  0  0 
 34 76  1  0  0  0  0 
 34 77  1  0  0  0  0 
 34 78  1  0  0  0  0 
 35 71  1  0  0  0  0 
 35 72  1  0  0  0  0 
 36 37  2  0  0  0  0 
 36 39  1  0  0  0  0 
 37 79  1  0  0  0  0 
 38 40  1  0  0  0  0 
 38 80  1  0  0  0  0 
 38 81  1  0  0  0  0 
 39 41  2  0  0  0  0 
 39 45  1  0  0  0  0 
 40 41  1  0  0  0  0 
 40 44  2  0  0  0  0 
 41 43  1  0  0  0  0 
 42 82  1  0  0  0  0 
 42 83  1  0  0  0  0 
 42 84  1  0  0  0  0 
 43 46  2  0  0  0  0 
 45 47  2  0  0  0  0 
 45 85  1  0  0  0  0 
 46 47  1  0  0  0  0 
 46 87  1  0  0  0  0 
 47 88  1  0  0  0  0 
 48 89  1  0  0  0  0 
 48 90  1  0  0  0  0 
 48 91  1  0  0  0  0 
M  END
> <cdk:Title>
31100

> <cdk:Remark>
null

> <PUBCHEM_COMPOUND_CID>
31100

> <PUBCHEM_COMPOUND_CANONICALIZED>
1

> <PUBCHEM_CACTVS_COMPLEXITY>
1320

> <PUBCHEM_CACTVS_HBOND_ACCEPTOR>
9

> <PUBCHEM_CACTVS_HBOND_DONOR>
4

> <PUBCHEM_CACTVS_ROTATABLE_BOND>
5

> <PUBCHEM_CACTVS_SUBSKEYS>
AAADcfB/vABAEAAAAAAAAAAAAAAAAWLFgAA8YIEAAAAAAFjB8AAAHgRQCAABPSzBngSyyPPJloKoAyVyVHKCgCAhAiQImSH4ZLkaYPrA0bWfYAhklgDcyheYkMIOgAAAQAASAAAQAASAACQAAAAAAAAAAA==

> <PUBCHEM_IUPAC_INCHI>
InChI=1S/C32H40BrN5O5.CH4O3S/c1-16(2)12-24-29(40)37-11-7-10-25(37)32(42)38(24)30(41)31(43-32,17(3)4)35-28(39)18-13-20-19-8-6-9-22-26(19)21(27(33)34-22)14-23(20)36(5)15-18;1-5(2,3)4/h6,8-9,13,16-18,23-25,34,42H,7,10-12,14-15H2,1-5H3,(H,35,39);1H3,(H,2,3,4)/t18-,23-,24+,25+,31-,32+;/m1./s1

> <PUBCHEM_IUPAC_INCHIKEY>
NOJMTMIRQRDZMT-GSPXQYRGSA-N

> <PUBCHEM_EXACT_MASS>
749.209396

> <PUBCHEM_MOLECULAR_FORMULA>
C33H44BrN5O8S

> <PUBCHEM_MOLECULAR_WEIGHT>
750.70016

> <PUBCHEM_OPENEYE_CAN_SMILES>
CC(C)CC1C(=O)N2CCCC2C3(N1C(=O)C(O3)(C(C)C)NC(=O)C4CN(C5CC6=C(NC7=CC=CC(=C67)C5=C4)Br)C)O.CS(=O)(=O)O

> <PUBCHEM_OPENEYE_ISO_SMILES>
CC(C)C[C@H]1C(=O)N2CCC[C@H]2[C@]3(N1C(=O)[C@](O3)(C(C)C)NC(=O)[C@H]4CN([C@@H]5CC6=C(NC7=CC=CC(=C67)C5=C4)Br)C)O.CS(=O)(=O)O

> <PUBCHEM_CACTVS_TPSA>
181

> <PUBCHEM_MONOISOTOPIC_WEIGHT>
749.209396

> <PUBCHEM_TOTAL_CHARGE>
0

> <PUBCHEM_HEAVY_ATOM_COUNT>
48

> <PUBCHEM_ATOM_DEF_STEREO_COUNT>
6

> <PUBCHEM_ATOM_UDEF_STEREO_COUNT>
0

> <PUBCHEM_BOND_DEF_STEREO_COUNT>
0

> <PUBCHEM_BOND_UDEF_STEREO_COUNT>
0

> <PUBCHEM_ISOTOPIC_ATOM_COUNT>
0

> <PUBCHEM_COMPONENT_COUNT>
2

> <PUBCHEM_CACTVS_TAUTO_COUNT>
8

> <PUBCHEM_COORDINATE_TYPE>
1
5
255

> <PUBCHEM_BONDANNOTATIONS>
20  13  6
15  43  8
15  44  8
16  49  5
18  25  6
31  30  5
32  70  5
39  41  8
39  45  8
17  4  6
40  41  8
40  44  8
41  43  8
43  46  8
45  47  8
46  47  8

> <DRUG_ID>
w199

> <DRUG_NAME>
Bromocriptine Mesylate

$$$$
12558
  CDK     0927151942
null
 21 22  0  0  0  0  0  0  0  0999 V2000
    3.5388    0.5000    0.0000 N   0  0  0  0  0  0  0  0  0  0  0  0
    3.5388   -0.5000    0.0000 C   0  0  0  0  0  0  0  0  0  0  0  0
    4.4851   -0.8047    0.0000 C   0  0  0  0  0  0  0  0  0  0  0  0
    2.5878   -0.8090    0.0000 C   0  0  0  0  0  0  0  0  0  0  0  0
    2.5878    0.8090    0.0000 C   0  0  0  0  0  0  0  0  0  0  0  0
    4.4851    0.8047    0.0000 C   0  0  0  0  0  0  0  0  0  0  0  0
    5.0687    0.0000    0.0000 C   0  0  0  0  0  0  0  0  0  0  0  0
    2.0000    0.0000    0.0000 C   0  0  0  0  0  0  0  0  0  0  0  0
    3.5396   -1.1200    0.0000 H   0  0  0  0  0  0  0  0  0  0  0  0
    2.0508   -1.1190    0.0000 H   0  0  0  0  0  0  0  0  0  0  0  0
    2.8400   -1.3754    0.0000 H   0  0  0  0  0  0  0  0  0  0  0  0
    4.2340   -1.3716    0.0000 H   0  0  0  0  0  0  0  0  0  0  0  0
    5.0224   -1.1140    0.0000 H   0  0  0  0  0  0  0  0  0  0  0  0
    5.0224    1.1140    0.0000 H   0  0  0  0  0  0  0  0  0  0  0  0
    4.2340    1.3716    0.0000 H   0  0  0  0  0  0  0  0  0  0  0  0
    2.8400    1.3754    0.0000 H   0  0  0  0  0  0  0  0  0  0  0  0
    2.0508    1.1190    0.0000 H   0  0  0  0  0  0  0  0  0  0  0  0
    5.5295   -0.4147    0.0000 H   0  0  0  0  0  0  0  0  0  0  0  0
    5.5295    0.4147    0.0000 H   0  0  0  0  0  0  0  0  0  0  0  0
    1.5392    0.4149    0.0000 H   0  0  0  0  0  0  0  0  0  0  0  0
    1.5392   -0.4149    0.0000 H   0  0  0  0  0  0  0  0  0  0  0  0
  1  2  1  0  0  0  0 
  1  5  1  0  0  0  0 
  1  6  1  0  0  0  0 
  2  3  1  0  0  0  0 
  2  4  1  0  0  0  0 
  2  9  1  0  0  0  0 
  3  7  1  0  0  0  0 
  3 12  1  0  0  0  0 
  3 13  1  0  0  0  0 
  4  8  1  0  0  0  0 
  4 10  1  0  0  0  0 
  4 11  1  0  0  0  0 
  5  8  1  0  0  0  0 
  5 16  1  0  0  0  0 
  5 17  1  0  0  0  0 
  6  7  1  0  0  0  0 
  6 14  1  0  0  0  0 
  6 15  1  0  0  0  0 
  7 18  1  0  0  0  0 
  7 19  1  0  0  0  0 
  8 20  1  0  0  0  0 
  8 21  1  0  0  0  0 
M  END
> <cdk:Title>
12558

> <cdk:Remark>
null

> <PUBCHEM_COMPOUND_CID>
12558

> <PUBCHEM_COMPOUND_CANONICALIZED>
1

> <PUBCHEM_CACTVS_COMPLEXITY>
80.4

> <PUBCHEM_CACTVS_HBOND_ACCEPTOR>
1

> <PUBCHEM_CACTVS_HBOND_DONOR>
0

> <PUBCHEM_CACTVS_ROTATABLE_BOND>
0

> <PUBCHEM_CACTVS_SUBSKEYS>
AAADccBiAAAAAAAAAAAAAAAAAAAAAWLAAAAAAAAAAAAWAAAAAAAAHAAAAAAACCjBAAQAAAMAAAAAAAAAAAAAAAAAAAAAAAAIAAAAAAIAgAAEAAAAAACAAAEQgAAAAAAAAAAAAAAAAAAAAAAAAAAAAAAAAA==

> <PUBCHEM_IUPAC_OPENEYE_NAME>
2,3,5,6,7,8-hexahydro-1H-pyrrolizine

> <PUBCHEM_IUPAC_CAS_NAME>
2,3,5,6,7,8-hexahydro-1H-pyrrolizine

> <PUBCHEM_IUPAC_NAME>
2,3,5,6,7,8-hexahydro-1H-pyrrolizine

> <PUBCHEM_IUPAC_SYSTEMATIC_NAME>
2,3,5,6,7,8-hexahydro-1H-pyrrolizine

> <PUBCHEM_IUPAC_TRADITIONAL_NAME>
pyrrolizidine

> <PUBCHEM_IUPAC_INCHI>
InChI=1S/C7H13N/c1-3-7-4-2-6-8(7)5-1/h7H,1-6H2

> <PUBCHEM_IUPAC_INCHIKEY>
ADRDEXBBJTUCND-UHFFFAOYSA-N

> <PUBCHEM_XLOGP3_AA>
1.3

> <PUBCHEM_EXACT_MASS>
111.104799

> <PUBCHEM_MOLECULAR_FORMULA>
C7H13N

> <PUBCHEM_MOLECULAR_WEIGHT>
111.18482

> <PUBCHEM_OPENEYE_CAN_SMILES>
C1CC2CCCN2C1

> <PUBCHEM_OPENEYE_ISO_SMILES>
C1CC2CCCN2C1

> <PUBCHEM_CACTVS_TPSA>
3.2

> <PUBCHEM_MONOISOTOPIC_WEIGHT>
111.104799

> <PUBCHEM_TOTAL_CHARGE>
0

> <PUBCHEM_HEAVY_ATOM_COUNT>
8

> <PUBCHEM_ATOM_DEF_STEREO_COUNT>
0

> <PUBCHEM_ATOM_UDEF_STEREO_COUNT>
0

> <PUBCHEM_BOND_DEF_STEREO_COUNT>
0

> <PUBCHEM_BOND_UDEF_STEREO_COUNT>
0

> <PUBCHEM_ISOTOPIC_ATOM_COUNT>
0

> <PUBCHEM_COMPONENT_COUNT>
1

> <PUBCHEM_CACTVS_TAUTO_COUNT>
1

> <PUBCHEM_COORDINATE_TYPE>
1
5
255

> <DRUG_ID>
w2

> <DRUG_NAME>
Pyrrolizidine

$$$$
4754
  CDK     0927151942
null
 26 26  0  0  0  0  0  0  0  0999 V2000
    2.8660   -2.0000    0.0000 O   0  0  0  0  0  0  0  0  0  0  0  0
    4.5981    2.0000    0.0000 O   0  0  0  0  0  0  0  0  0  0  0  0
    2.8660    2.0000    0.0000 N   0  0  0  0  0  0  0  0  0  0  0  0
    2.8660    1.0000    0.0000 C   0  0  0  0  0  0  0  0  0  0  0  0
    2.8660   -1.0000    0.0000 C   0  0  0  0  0  0  0  0  0  0  0  0
    2.0000    0.5000    0.0000 C   0  0  0  0  0  0  0  0  0  0  0  0
    3.7320    0.5000    0.0000 C   0  0  0  0  0  0  0  0  0  0  0  0
    2.0000   -0.5000    0.0000 C   0  0  0  0  0  0  0  0  0  0  0  0
    3.7320   -0.5000    0.0000 C   0  0  0  0  0  0  0  0  0  0  0  0
    2.0000   -2.5000    0.0000 C   0  0  0  0  0  0  0  0  0  0  0  0
    2.0000   -3.5000    0.0000 C   0  0  0  0  0  0  0  0  0  0  0  0
    3.7320    2.5000    0.0000 C   0  0  0  0  0  0  0  0  0  0  0  0
    3.7320    3.5000    0.0000 C   0  0  0  0  0  0  0  0  0  0  0  0
    1.4631    0.8100    0.0000 H   0  0  0  0  0  0  0  0  0  0  0  0
    4.2690    0.8100    0.0000 H   0  0  0  0  0  0  0  0  0  0  0  0
    1.4631   -0.8100    0.0000 H   0  0  0  0  0  0  0  0  0  0  0  0
    4.2690   -0.8100    0.0000 H   0  0  0  0  0  0  0  0  0  0  0  0
    1.7880   -1.9174    0.0000 H   0  0  0  0  0  0  0  0  0  0  0  0
    1.3894   -2.6077    0.0000 H   0  0  0  0  0  0  0  0  0  0  0  0
    2.3291    2.3100    0.0000 H   0  0  0  0  0  0  0  0  0  0  0  0
    1.3800   -3.5000    0.0000 H   0  0  0  0  0  0  0  0  0  0  0  0
    2.0000   -4.1200    0.0000 H   0  0  0  0  0  0  0  0  0  0  0  0
    2.6200   -3.5000    0.0000 H   0  0  0  0  0  0  0  0  0  0  0  0
    4.3520    3.5000    0.0000 H   0  0  0  0  0  0  0  0  0  0  0  0
    3.7320    4.1200    0.0000 H   0  0  0  0  0  0  0  0  0  0  0  0
    3.1120    3.5000    0.0000 H   0  0  0  0  0  0  0  0  0  0  0  0
  1  5  1  0  0  0  0 
  1 10  1  0  0  0  0 
  2 12  2  0  0  0  0 
  3  4  1  0  0  0  0 
  3 12  1  0  0  0  0 
  3 20  1  0  0  0  0 
  4  6  2  0  0  0  0 
  4  7  1  0  0  0  0 
  5  8  2  0  0  0  0 
  5  9  1  0  0  0  0 
  6  8  1  0  0  0  0 
  6 14  1  0  0  0  0 
  7  9  2  0  0  0  0 
  7 15  1  0  0  0  0 
  8 16  1  0  0  0  0 
  9 17  1  0  0  0  0 
 10 11  1  0  0  0  0 
 10 18  1  0  0  0  0 
 10 19  1  0  0  0  0 
 11 21  1  0  0  0  0 
 11 22  1  0  0  0  0 
 11 23  1  0  0  0  0 
 12 13  1  0  0  0  0 
 13 24  1  0  0  0  0 
 13 25  1  0  0  0  0 
 13 26  1  0  0  0  0 
M  END
> <cdk:Title>
4754

> <cdk:Remark>
null

> <PUBCHEM_COMPOUND_CID>
4754

> <PUBCHEM_COMPOUND_CANONICALIZED>
1

> <PUBCHEM_CACTVS_COMPLEXITY>
162

> <PUBCHEM_CACTVS_HBOND_ACCEPTOR>
2

> <PUBCHEM_CACTVS_HBOND_DONOR>
1

> <PUBCHEM_CACTVS_ROTATABLE_BOND>
3

> <PUBCHEM_CACTVS_SUBSKEYS>
AAADccByMAAAAAAAAAAAAAAAAAAAAAAAAAAwAAAAAAAAAAABAAAAHgAQAAAACAyhkAIyxoLABACIACVSUACCCAAhIgAIiAAGbIgMJiLEsZuGOCjk1BHI6AewQAAAAEAAAAAAAAAAgAAAAAAAAAAAAAAAAA==

> <PUBCHEM_IUPAC_OPENEYE_NAME>
N-(4-ethoxyphenyl)acetamide

> <PUBCHEM_IUPAC_CAS_NAME>
N-(4-ethoxyphenyl)acetamide

> <PUBCHEM_IUPAC_NAME>
N-(4-ethoxyphenyl)acetamide

> <PUBCHEM_IUPAC_SYSTEMATIC_NAME>
N-(4-ethoxyphenyl)ethanamide

> <PUBCHEM_IUPAC_TRADITIONAL_NAME>
N-p-phenetylacetamide

> <PUBCHEM_IUPAC_INCHI>
InChI=1S/C10H13NO2/c1-3-13-10-6-4-9(5-7-10)11-8(2)12/h4-7H,3H2,1-2H3,(H,11,12)

> <PUBCHEM_IUPAC_INCHIKEY>
CPJSUEIXXCENMM-UHFFFAOYSA-N

> <PUBCHEM_XLOGP3>
1.6

> <PUBCHEM_EXACT_MASS>
179.094629

> <PUBCHEM_MOLECULAR_FORMULA>
C10H13NO2

> <PUBCHEM_MOLECULAR_WEIGHT>
179.21572

> <PUBCHEM_OPENEYE_CAN_SMILES>
CCOC1=CC=C(C=C1)NC(=O)C

> <PUBCHEM_OPENEYE_ISO_SMILES>
CCOC1=CC=C(C=C1)NC(=O)C

> <PUBCHEM_CACTVS_TPSA>
38.3

> <PUBCHEM_MONOISOTOPIC_WEIGHT>
179.094629

> <PUBCHEM_TOTAL_CHARGE>
0

> <PUBCHEM_HEAVY_ATOM_COUNT>
13

> <PUBCHEM_ATOM_DEF_STEREO_COUNT>
0

> <PUBCHEM_ATOM_UDEF_STEREO_COUNT>
0

> <PUBCHEM_BOND_DEF_STEREO_COUNT>
0

> <PUBCHEM_BOND_UDEF_STEREO_COUNT>
0

> <PUBCHEM_ISOTOPIC_ATOM_COUNT>
0

> <PUBCHEM_COMPONENT_COUNT>
1

> <PUBCHEM_CACTVS_TAUTO_COUNT>
3

> <PUBCHEM_COORDINATE_TYPE>
1
5
255

> <PUBCHEM_BONDANNOTATIONS>
4  6  8
4  7  8
5  8  8
5  9  8
6  8  8
7  9  8

> <DRUG_ID>
w20

> <DRUG_NAME>
Phenacetin

$$$$
5991
  CDK     0927151942
null
 46 49  0  0  0  0  0  0  0  0999 V2000
    8.5677    1.8849    0.0000 O   0  0  0  0  0  0  0  0  0  0  0  0
    2.5357   -2.4238    0.0000 O   0  0  0  0  0  0  0  0  0  0  0  0
    7.9288    0.6286    0.0000 C   0  0  1  0  0  0  0  0  0  0  0  0
    7.9288   -0.3714    0.0000 C   0  0  2  0  0  0  0  0  0  0  0  0
    7.0628   -0.8714    0.0000 C   0  0  1  0  0  0  0  0  0  0  0  0
    8.8750    0.9333    0.0000 C   0  0  2  0  0  0  0  0  0  0  0  0
    6.1968   -0.3714    0.0000 C   0  0  2  0  0  0  0  0  0  0  0  0
    7.0628    1.1286    0.0000 C   0  0  0  0  0  0  0  0  0  0  0  0
    8.8750   -0.6762    0.0000 C   0  0  0  0  0  0  0  0  0  0  0  0
    6.1968    0.6286    0.0000 C   0  0  0  0  0  0  0  0  0  0  0  0
    9.4586    0.1286    0.0000 C   0  0  0  0  0  0  0  0  0  0  0  0
    7.0789   -1.9130    0.0000 C   0  0  0  0  0  0  0  0  0  0  0  0
    7.9288    1.6286    0.0000 C   0  0  0  0  0  0  0  0  0  0  0  0
    5.2868   -0.8783    0.0000 C   0  0  0  0  0  0  0  0  0  0  0  0
    6.1808   -2.4407    0.0000 C   0  0  0  0  0  0  0  0  0  0  0  0
    5.2787   -1.9199    0.0000 C   0  0  0  0  0  0  0  0  0  0  0  0
    9.6851    1.5197    0.0000 C   0  0  0  0  0  0  0  0  0  0  0  0
    4.3599   -0.3142    0.0000 C   0  0  0  0  0  0  0  0  0  0  0  0
    4.3433   -2.4696    0.0000 C   0  0  0  0  0  0  0  0  0  0  0  0
    3.4120   -0.8422    0.0000 C   0  0  0  0  0  0  0  0  0  0  0  0
    3.4037   -1.9271    0.0000 C   0  0  0  0  0  0  0  0  0  0  0  0
   10.4951    2.1061    0.0000 C   0  0  0  0  0  0  0  0  0  0  0  0
    8.0188   -1.2167    0.0000 H   0  0  0  0  0  0  0  0  0  0  0  0
    7.8022   -1.2908    0.0000 H   0  0  0  0  0  0  0  0  0  0  0  0
    6.9329    0.0536    0.0000 H   0  0  0  0  0  0  0  0  0  0  0  0
    7.4613    1.6035    0.0000 H   0  0  0  0  0  0  0  0  0  0  0  0
    6.6643    1.6035    0.0000 H   0  0  0  0  0  0  0  0  0  0  0  0
    8.6240   -1.2431    0.0000 H   0  0  0  0  0  0  0  0  0  0  0  0
    9.4124   -0.9854    0.0000 H   0  0  0  0  0  0  0  0  0  0  0  0
    5.9847    1.2112    0.0000 H   0  0  0  0  0  0  0  0  0  0  0  0
    5.5862    0.5209    0.0000 H   0  0  0  0  0  0  0  0  0  0  0  0
    9.9195   -0.2862    0.0000 H   0  0  0  0  0  0  0  0  0  0  0  0
    9.9195    0.5433    0.0000 H   0  0  0  0  0  0  0  0  0  0  0  0
    7.2969   -2.4934    0.0000 H   0  0  0  0  0  0  0  0  0  0  0  0
    7.6880   -1.7974    0.0000 H   0  0  0  0  0  0  0  0  0  0  0  0
    8.5488    1.6286    0.0000 H   0  0  0  0  0  0  0  0  0  0  0  0
    7.9288    2.2486    0.0000 H   0  0  0  0  0  0  0  0  0  0  0  0
    7.3088    1.6286    0.0000 H   0  0  0  0  0  0  0  0  0  0  0  0
    5.7835   -2.9167    0.0000 H   0  0  0  0  0  0  0  0  0  0  0  0
    6.5818   -2.9136    0.0000 H   0  0  0  0  0  0  0  0  0  0  0  0
    8.9833    2.3449    0.0000 H   0  0  0  0  0  0  0  0  0  0  0  0
    4.3719    0.3057    0.0000 H   0  0  0  0  0  0  0  0  0  0  0  0
    4.3457   -3.0896    0.0000 H   0  0  0  0  0  0  0  0  0  0  0  0
    2.8787   -0.5260    0.0000 H   0  0  0  0  0  0  0  0  0  0  0  0
   10.9973    2.4696    0.0000 H   0  0  0  0  0  0  0  0  0  0  0  0
    2.0000   -2.1117    0.0000 H   0  0  0  0  0  0  0  0  0  0  0  0
  6  1  1  1  0  0  0 
  1 41  1  0  0  0  0 
  2 21  1  0  0  0  0 
  2 46  1  0  0  0  0 
  3  4  1  0  0  0  0 
  3  6  1  0  0  0  0 
  3  8  1  0  0  0  0 
  3 13  1  1  0  0  0 
  4  5  1  0  0  0  0 
  4  9  1  0  0  0  0 
  4 23  1  6  0  0  0 
  5  7  1  0  0  0  0 
  5 12  1  0  0  0  0 
  5 24  1  1  0  0  0 
  6 11  1  0  0  0  0 
  6 17  1  0  0  0  0 
  7 10  1  0  0  0  0 
  7 14  1  0  0  0  0 
  7 25  1  6  0  0  0 
  8 10  1  0  0  0  0 
  8 26  1  0  0  0  0 
  8 27  1  0  0  0  0 
  9 11  1  0  0  0  0 
  9 28  1  0  0  0  0 
  9 29  1  0  0  0  0 
 10 30  1  0  0  0  0 
 10 31  1  0  0  0  0 
 11 32  1  0  0  0  0 
 11 33  1  0  0  0  0 
 12 15  1  0  0  0  0 
 12 34  1  0  0  0  0 
 12 35  1  0  0  0  0 
 13 36  1  0  0  0  0 
 13 37  1  0  0  0  0 
 13 38  1  0  0  0  0 
 14 16  2  0  0  0  0 
 14 18  1  0  0  0  0 
 15 16  1  0  0  0  0 
 15 39  1  0  0  0  0 
 15 40  1  0  0  0  0 
 16 19  1  0  0  0  0 
 17 22  3  0  0  0  0 
 18 20  2  0  0  0  0 
 18 42  1  0  0  0  0 
 19 21  2  0  0  0  0 
 19 43  1  0  0  0  0 
 20 21  1  0  0  0  0 
 20 44  1  0  0  0  0 
 22 45  1  0  0  0  0 
M  END
> <cdk:Title>
5991

> <cdk:Remark>
null

> <PUBCHEM_COMPOUND_CID>
5991

> <PUBCHEM_COMPOUND_CANONICALIZED>
1

> <PUBCHEM_CACTVS_COMPLEXITY>
505

> <PUBCHEM_CACTVS_HBOND_ACCEPTOR>
2

> <PUBCHEM_CACTVS_HBOND_DONOR>
2

> <PUBCHEM_CACTVS_ROTATABLE_BOND>
1

> <PUBCHEM_CACTVS_SUBSKEYS>
AAADceB4MAAAAAAAAAAAAAAAAAAAAYAAAAAwYMAAAAAAAGDBAAAAGgAACAAAD0SAmAAyBoAAAgDAGiBCAAgCAAAgIAAIiAAGCIgIJiKCERKAcAAkwBEImAeAwPAPoAABAAAQAADAAAYAACAAAYAADAAAAA==

> <PUBCHEM_IUPAC_OPENEYE_NAME>
(8R,9S,13S,14S,17R)-17-ethynyl-13-methyl-7,8,9,11,12,14,15,16-octahydro-6H-cyclopenta[a]phenanthrene-3,17-diol

> <PUBCHEM_IUPAC_CAS_NAME>
(8R,9S,13S,14S,17R)-17-ethynyl-13-methyl-7,8,9,11,12,14,15,16-octahydro-6H-cyclopenta[a]phenanthrene-3,17-diol

> <PUBCHEM_IUPAC_NAME>
(8R,9S,13S,14S,17R)-17-ethynyl-13-methyl-7,8,9,11,12,14,15,16-octahydro-6H-cyclopenta[a]phenanthrene-3,17-diol

> <PUBCHEM_IUPAC_SYSTEMATIC_NAME>
(8R,9S,13S,14S,17R)-17-ethynyl-13-methyl-7,8,9,11,12,14,15,16-octahydro-6H-cyclopenta[a]phenanthrene-3,17-diol

> <PUBCHEM_IUPAC_TRADITIONAL_NAME>
(8R,9S,13S,14S,17R)-17-ethynyl-13-methyl-7,8,9,11,12,14,15,16-octahydro-6H-cyclopenta[a]phenanthrene-3,17-diol

> <PUBCHEM_IUPAC_INCHI>
InChI=1S/C20H24O2/c1-3-20(22)11-9-18-17-6-4-13-12-14(21)5-7-15(13)16(17)8-10-19(18,20)2/h1,5,7,12,16-18,21-22H,4,6,8-11H2,2H3/t16-,17-,18+,19+,20+/m1/s1

> <PUBCHEM_IUPAC_INCHIKEY>
BFPYWIDHMRZLRN-SLHNCBLASA-N

> <PUBCHEM_XLOGP3>
3.7

> <PUBCHEM_EXACT_MASS>
296.17763

> <PUBCHEM_MOLECULAR_FORMULA>
C20H24O2

> <PUBCHEM_MOLECULAR_WEIGHT>
296.40336

> <PUBCHEM_OPENEYE_CAN_SMILES>
CC12CCC3C(C1CCC2(C#C)O)CCC4=C3C=CC(=C4)O

> <PUBCHEM_OPENEYE_ISO_SMILES>
C[C@]12CC[C@H]3[C@H]([C@@H]1CC[C@]2(C#C)O)CCC4=C3C=CC(=C4)O

> <PUBCHEM_CACTVS_TPSA>
40.5

> <PUBCHEM_MONOISOTOPIC_WEIGHT>
296.17763

> <PUBCHEM_TOTAL_CHARGE>
0

> <PUBCHEM_HEAVY_ATOM_COUNT>
22

> <PUBCHEM_ATOM_DEF_STEREO_COUNT>
5

> <PUBCHEM_ATOM_UDEF_STEREO_COUNT>
0

> <PUBCHEM_BOND_DEF_STEREO_COUNT>
0

> <PUBCHEM_BOND_UDEF_STEREO_COUNT>
0

> <PUBCHEM_ISOTOPIC_ATOM_COUNT>
0

> <PUBCHEM_COMPONENT_COUNT>
1

> <PUBCHEM_CACTVS_TAUTO_COUNT>
9

> <PUBCHEM_COORDINATE_TYPE>
1
5
255

> <PUBCHEM_BONDANNOTATIONS>
6  1  5
14  16  8
14  18  8
16  19  8
18  20  8
19  21  8
20  21  8
3  13  5
4  23  6
5  24  5
7  25  6

> <DRUG_ID>
w200

> <DRUG_NAME>
Ethinylestradiol

$$$$
11683
  CDK     0927151942
null
 60 63  0  0  0  0  0  0  0  0999 V2000
    8.0319    1.8387    0.0000 O   0  0  0  0  0  0  0  0  0  0  0  0
    9.7423    1.9027    0.0000 O   0  0  0  0  0  0  0  0  0  0  0  0
    2.0000   -2.4700    0.0000 O   0  0  0  0  0  0  0  0  0  0  0  0
    9.1931    3.1238    0.0000 O   0  0  0  0  0  0  0  0  0  0  0  0
    7.3931    0.5824    0.0000 C   0  0  1  0  0  0  0  0  0  0  0  0
    7.3931   -0.4176    0.0000 C   0  0  2  0  0  0  0  0  0  0  0  0
    6.5271   -0.9176    0.0000 C   0  0  1  0  0  0  0  0  0  0  0  0
    5.6610   -0.4176    0.0000 C   0  0  2  0  0  0  0  0  0  0  0  0
    8.3393    0.8871    0.0000 C   0  0  1  0  0  0  0  0  0  0  0  0
    6.5271    1.0824    0.0000 C   0  0  0  0  0  0  0  0  0  0  0  0
    8.3393   -0.7224    0.0000 C   0  0  0  0  0  0  0  0  0  0  0  0
    5.6610    0.5824    0.0000 C   0  0  0  0  0  0  0  0  0  0  0  0
    4.7510   -0.9245    0.0000 C   0  0  2  0  0  0  0  0  0  0  0  0
    8.9229    0.0824    0.0000 C   0  0  0  0  0  0  0  0  0  0  0  0
    7.3931    1.5824    0.0000 C   0  0  0  0  0  0  0  0  0  0  0  0
    6.5431   -1.9591    0.0000 C   0  0  0  0  0  0  0  0  0  0  0  0
    4.7430   -1.9661    0.0000 C   0  0  0  0  0  0  0  0  0  0  0  0
    3.8242   -0.3604    0.0000 C   0  0  0  0  0  0  0  0  0  0  0  0
    9.3340    0.9899    0.0000 C   0  0  0  0  0  0  0  0  0  0  0  0
    5.6451   -2.4869    0.0000 C   0  0  0  0  0  0  0  0  0  0  0  0
    4.7587    0.0755    0.0000 C   0  0  0  0  0  0  0  0  0  0  0  0
    2.8763   -0.8883    0.0000 C   0  0  0  0  0  0  0  0  0  0  0  0
    3.8076   -2.5158    0.0000 C   0  0  0  0  0  0  0  0  0  0  0  0
    9.9204    0.1799    0.0000 C   0  0  0  0  0  0  0  0  0  0  0  0
    2.8680   -1.9733    0.0000 C   0  0  0  0  0  0  0  0  0  0  0  0
    5.6489   -3.4869    0.0000 C   0  0  0  0  0  0  0  0  0  0  0  0
    8.2415    2.8165    0.0000 C   0  0  0  0  0  0  0  0  0  0  0  0
    7.4996    3.4869    0.0000 C   0  0  0  0  0  0  0  0  0  0  0  0
    7.4830   -1.2629    0.0000 H   0  0  0  0  0  0  0  0  0  0  0  0
    7.2664   -1.3370    0.0000 H   0  0  0  0  0  0  0  0  0  0  0  0
    6.3972    0.0074    0.0000 H   0  0  0  0  0  0  0  0  0  0  0  0
    6.9256    1.5573    0.0000 H   0  0  0  0  0  0  0  0  0  0  0  0
    6.1285    1.5573    0.0000 H   0  0  0  0  0  0  0  0  0  0  0  0
    8.0883   -1.2893    0.0000 H   0  0  0  0  0  0  0  0  0  0  0  0
    8.8767   -1.0316    0.0000 H   0  0  0  0  0  0  0  0  0  0  0  0
    5.4490    1.1650    0.0000 H   0  0  0  0  0  0  0  0  0  0  0  0
    5.0504    0.4747    0.0000 H   0  0  0  0  0  0  0  0  0  0  0  0
    9.3838   -0.3324    0.0000 H   0  0  0  0  0  0  0  0  0  0  0  0
    9.3838    0.4971    0.0000 H   0  0  0  0  0  0  0  0  0  0  0  0
    8.0131    1.5824    0.0000 H   0  0  0  0  0  0  0  0  0  0  0  0
    7.3931    2.2024    0.0000 H   0  0  0  0  0  0  0  0  0  0  0  0
    6.7731    1.5824    0.0000 H   0  0  0  0  0  0  0  0  0  0  0  0
    7.0836   -2.2629    0.0000 H   0  0  0  0  0  0  0  0  0  0  0  0
    4.2324    0.1063    0.0000 H   0  0  0  0  0  0  0  0  0  0  0  0
    3.4343    0.1216    0.0000 H   0  0  0  0  0  0  0  0  0  0  0  0
    5.3787    0.0707    0.0000 H   0  0  0  0  0  0  0  0  0  0  0  0
    4.7635    0.6955    0.0000 H   0  0  0  0  0  0  0  0  0  0  0  0
    4.1388    0.0803    0.0000 H   0  0  0  0  0  0  0  0  0  0  0  0
    2.6718   -0.3031    0.0000 H   0  0  0  0  0  0  0  0  0  0  0  0
    2.2647   -0.9897    0.0000 H   0  0  0  0  0  0  0  0  0  0  0  0
    3.8100   -3.1358    0.0000 H   0  0  0  0  0  0  0  0  0  0  0  0
    9.4182   -0.1837    0.0000 H   0  0  0  0  0  0  0  0  0  0  0  0
   10.2839   -0.3223    0.0000 H   0  0  0  0  0  0  0  0  0  0  0  0
   10.4226    0.5434    0.0000 H   0  0  0  0  0  0  0  0  0  0  0  0
    5.0289   -3.4893    0.0000 H   0  0  0  0  0  0  0  0  0  0  0  0
    5.6513   -4.1069    0.0000 H   0  0  0  0  0  0  0  0  0  0  0  0
    6.2689   -3.4845    0.0000 H   0  0  0  0  0  0  0  0  0  0  0  0
    7.9152    3.9469    0.0000 H   0  0  0  0  0  0  0  0  0  0  0  0
    7.0395    3.9026    0.0000 H   0  0  0  0  0  0  0  0  0  0  0  0
    7.0839    3.0269    0.0000 H   0  0  0  0  0  0  0  0  0  0  0  0
  9  1  1  6  0  0  0 
  1 27  1  0  0  0  0 
  2 19  2  0  0  0  0 
  3 25  2  0  0  0  0 
  4 27  2  0  0  0  0 
  5  6  1  0  0  0  0 
  5  9  1  0  0  0  0 
  5 10  1  0  0  0  0 
  5 15  1  1  0  0  0 
  6  7  1  0  0  0  0 
  6 11  1  0  0  0  0 
  6 29  1  6  0  0  0 
  7  8  1  0  0  0  0 
  7 16  1  0  0  0  0 
  7 30  1  1  0  0  0 
  8 12  1  0  0  0  0 
  8 13  1  0  0  0  0 
  8 31  1  6  0  0  0 
  9 14  1  0  0  0  0 
  9 19  1  0  0  0  0 
 10 12  1  0  0  0  0 
 10 32  1  0  0  0  0 
 10 33  1  0  0  0  0 
 11 14  1  0  0  0  0 
 11 34  1  0  0  0  0 
 11 35  1  0  0  0  0 
 12 36  1  0  0  0  0 
 12 37  1  0  0  0  0 
 13 17  1  0  0  0  0 
 13 18  1  0  0  0  0 
 13 21  1  1  0  0  0 
 14 38  1  0  0  0  0 
 14 39  1  0  0  0  0 
 15 40  1  0  0  0  0 
 15 41  1  0  0  0  0 
 15 42  1  0  0  0  0 
 16 20  2  0  0  0  0 
 16 43  1  0  0  0  0 
 17 20  1  0  0  0  0 
 17 23  2  0  0  0  0 
 18 22  1  0  0  0  0 
 18 44  1  0  0  0  0 
 18 45  1  0  0  0  0 
 19 24  1  0  0  0  0 
 20 26  1  0  0  0  0 
 21 46  1  0  0  0  0 
 21 47  1  0  0  0  0 
 21 48  1  0  0  0  0 
 22 25  1  0  0  0  0 
 22 49  1  0  0  0  0 
 22 50  1  0  0  0  0 
 23 25  1  0  0  0  0 
 23 51  1  0  0  0  0 
 24 52  1  0  0  0  0 
 24 53  1  0  0  0  0 
 24 54  1  0  0  0  0 
 26 55  1  0  0  0  0 
 26 56  1  0  0  0  0 
 26 57  1  0  0  0  0 
 27 28  1  0  0  0  0 
 28 58  1  0  0  0  0 
 28 59  1  0  0  0  0 
 28 60  1  0  0  0  0 
M  END
> <cdk:Title>
11683

> <cdk:Remark>
null

> <PUBCHEM_COMPOUND_CID>
11683

> <PUBCHEM_COMPOUND_CANONICALIZED>
1

> <PUBCHEM_CACTVS_COMPLEXITY>
821

> <PUBCHEM_CACTVS_HBOND_ACCEPTOR>
4

> <PUBCHEM_CACTVS_HBOND_DONOR>
0

> <PUBCHEM_CACTVS_ROTATABLE_BOND>
3

> <PUBCHEM_CACTVS_SUBSKEYS>
AAADcfB4OAAAAAAAAAAAAAAAAAAAAYAAAAAwQIAAAAAAAGCAAAAAGgAAAAAAD0SAgAACCAAABACIAqDSCAIAAAAgAAAACAFAAEgIABIAAQQCAAAEgAAIgQOIyPCPgAAAAAAAAACAAAQAACAAAYAADAAAAA==

> <PUBCHEM_IUPAC_OPENEYE_NAME>
[(8R,9S,10R,13S,14S,17R)-17-acetyl-6,10,13-trimethyl-3-oxo-2,8,9,11,12,14,15,16-octahydro-1H-cyclopenta[a]phenanthren-17-yl] acetate

> <PUBCHEM_IUPAC_CAS_NAME>
acetic acid [(8R,9S,10R,13S,14S,17R)-17-acetyl-6,10,13-trimethyl-3-oxo-2,8,9,11,12,14,15,16-octahydro-1H-cyclopenta[a]phenanthren-17-yl] ester

> <PUBCHEM_IUPAC_NAME>
[(8R,9S,10R,13S,14S,17R)-17-acetyl-6,10,13-trimethyl-3-oxo-2,8,9,11,12,14,15,16-octahydro-1H-cyclopenta[a]phenanthren-17-yl] acetate

> <PUBCHEM_IUPAC_SYSTEMATIC_NAME>
[(8R,9S,10R,13S,14S,17R)-17-ethanoyl-6,10,13-trimethyl-3-oxidanylidene-2,8,9,11,12,14,15,16-octahydro-1H-cyclopenta[a]phenanthren-17-yl] ethanoate

> <PUBCHEM_IUPAC_TRADITIONAL_NAME>
acetic acid [(8R,9S,10R,13S,14S,17R)-17-acetyl-3-keto-6,10,13-trimethyl-2,8,9,11,12,14,15,16-octahydro-1H-cyclopenta[a]phenanthren-17-yl] ester

> <PUBCHEM_IUPAC_INCHI>
InChI=1S/C24H32O4/c1-14-12-18-19(22(4)9-6-17(27)13-21(14)22)7-10-23(5)20(18)8-11-24(23,15(2)25)28-16(3)26/h12-13,18-20H,6-11H2,1-5H3/t18-,19+,20+,22-,23+,24+/m1/s1

> <PUBCHEM_IUPAC_INCHIKEY>
RQZAXGRLVPAYTJ-GQFGMJRRSA-N

> <PUBCHEM_XLOGP3_AA>
3.1

> <PUBCHEM_EXACT_MASS>
384.23006

> <PUBCHEM_MOLECULAR_FORMULA>
C24H32O4

> <PUBCHEM_MOLECULAR_WEIGHT>
384.50848

> <PUBCHEM_OPENEYE_CAN_SMILES>
CC1=CC2C(CCC3(C2CCC3(C(=O)C)OC(=O)C)C)C4(C1=CC(=O)CC4)C

> <PUBCHEM_OPENEYE_ISO_SMILES>
CC1=C[C@@H]2[C@H](CC[C@]3([C@H]2CC[C@@]3(C(=O)C)OC(=O)C)C)[C@@]4(C1=CC(=O)CC4)C

> <PUBCHEM_CACTVS_TPSA>
60.4

> <PUBCHEM_MONOISOTOPIC_WEIGHT>
384.23006

> <PUBCHEM_TOTAL_CHARGE>
0

> <PUBCHEM_HEAVY_ATOM_COUNT>
28

> <PUBCHEM_ATOM_DEF_STEREO_COUNT>
6

> <PUBCHEM_ATOM_UDEF_STEREO_COUNT>
0

> <PUBCHEM_BOND_DEF_STEREO_COUNT>
0

> <PUBCHEM_BOND_UDEF_STEREO_COUNT>
0

> <PUBCHEM_ISOTOPIC_ATOM_COUNT>
0

> <PUBCHEM_COMPONENT_COUNT>
1

> <PUBCHEM_CACTVS_TAUTO_COUNT>
14

> <PUBCHEM_COORDINATE_TYPE>
1
5
255

> <PUBCHEM_BONDANNOTATIONS>
9  1  6
13  21  5
5  15  5
6  29  6
7  30  5
8  31  6

> <DRUG_ID>
w201

> <DRUG_NAME>
Megestrol Acetate

$$$$
5323
  CDK     0927151942
null
 35 36  0  0  0  0  0  0  0  0999 V2000
    6.0010   -0.9400    0.0000 S   0  0  0  0  0  0  0  0  0  0  0  0
    5.5010   -1.8060    0.0000 O   0  0  0  0  0  0  0  0  0  0  0  0
    6.5010   -0.0740    0.0000 O   0  0  0  0  0  0  0  0  0  0  0  0
    8.5991    1.5600    0.0000 O   0  0  0  0  0  0  0  0  0  0  0  0
   10.3312   -1.4400    0.0000 O   0  0  0  0  0  0  0  0  0  0  0  0
    6.8671   -1.4400    0.0000 N   0  0  0  0  0  0  0  0  0  0  0  0
    8.5991   -1.4400    0.0000 N   0  0  0  0  0  0  0  0  0  0  0  0
    2.5369    1.0600    0.0000 N   0  0  0  0  0  0  0  0  0  0  0  0
    9.4651    0.0600    0.0000 N   0  0  0  0  0  0  0  0  0  0  0  0
    5.1350   -0.4400    0.0000 C   0  0  0  0  0  0  0  0  0  0  0  0
    5.1350    0.5600    0.0000 C   0  0  0  0  0  0  0  0  0  0  0  0
    4.2690   -0.9400    0.0000 C   0  0  0  0  0  0  0  0  0  0  0  0
    7.7331   -0.9400    0.0000 C   0  0  0  0  0  0  0  0  0  0  0  0
    3.4030    0.5600    0.0000 C   0  0  0  0  0  0  0  0  0  0  0  0
    4.2690    1.0600    0.0000 C   0  0  0  0  0  0  0  0  0  0  0  0
    3.4030   -0.4400    0.0000 C   0  0  0  0  0  0  0  0  0  0  0  0
    7.7331    0.0600    0.0000 C   0  0  0  0  0  0  0  0  0  0  0  0
    8.5991    0.5600    0.0000 C   0  0  0  0  0  0  0  0  0  0  0  0
    9.4651   -0.9400    0.0000 C   0  0  0  0  0  0  0  0  0  0  0  0
    9.4651    2.0600    0.0000 C   0  0  0  0  0  0  0  0  0  0  0  0
   11.1972   -0.9400    0.0000 C   0  0  0  0  0  0  0  0  0  0  0  0
    6.8671   -2.0600    0.0000 H   0  0  0  0  0  0  0  0  0  0  0  0
    5.6720    0.8700    0.0000 H   0  0  0  0  0  0  0  0  0  0  0  0
    4.2690   -1.5600    0.0000 H   0  0  0  0  0  0  0  0  0  0  0  0
    4.2690    1.6800    0.0000 H   0  0  0  0  0  0  0  0  0  0  0  0
    2.8660   -0.7500    0.0000 H   0  0  0  0  0  0  0  0  0  0  0  0
    7.1962    0.3700    0.0000 H   0  0  0  0  0  0  0  0  0  0  0  0
    2.0000    0.7500    0.0000 H   0  0  0  0  0  0  0  0  0  0  0  0
    2.5369    1.6800    0.0000 H   0  0  0  0  0  0  0  0  0  0  0  0
    9.7751    1.5231    0.0000 H   0  0  0  0  0  0  0  0  0  0  0  0
   10.0021    2.3700    0.0000 H   0  0  0  0  0  0  0  0  0  0  0  0
    9.1551    2.5969    0.0000 H   0  0  0  0  0  0  0  0  0  0  0  0
   11.5072   -1.4769    0.0000 H   0  0  0  0  0  0  0  0  0  0  0  0
   11.7341   -0.6300    0.0000 H   0  0  0  0  0  0  0  0  0  0  0  0
   10.8872   -0.4031    0.0000 H   0  0  0  0  0  0  0  0  0  0  0  0
  1  2  2  0  0  0  0 
  1  3  2  0  0  0  0 
  1  6  1  0  0  0  0 
  1 10  1  0  0  0  0 
  4 18  1  0  0  0  0 
  4 20  1  0  0  0  0 
  5 19  1  0  0  0  0 
  5 21  1  0  0  0  0 
  6 13  1  0  0  0  0 
  6 22  1  0  0  0  0 
  7 13  1  0  0  0  0 
  7 19  2  0  0  0  0 
  8 14  1  0  0  0  0 
  8 28  1  0  0  0  0 
  8 29  1  0  0  0  0 
  9 18  2  0  0  0  0 
  9 19  1  0  0  0  0 
 10 11  2  0  0  0  0 
 10 12  1  0  0  0  0 
 11 15  1  0  0  0  0 
 11 23  1  0  0  0  0 
 12 16  2  0  0  0  0 
 12 24  1  0  0  0  0 
 13 17  2  0  0  0  0 
 14 15  2  0  0  0  0 
 14 16  1  0  0  0  0 
 15 25  1  0  0  0  0 
 16 26  1  0  0  0  0 
 17 18  1  0  0  0  0 
 17 27  1  0  0  0  0 
 20 30  1  0  0  0  0 
 20 31  1  0  0  0  0 
 20 32  1  0  0  0  0 
 21 33  1  0  0  0  0 
 21 34  1  0  0  0  0 
 21 35  1  0  0  0  0 
M  END
> <cdk:Title>
5323

> <cdk:Remark>
null

> <PUBCHEM_COMPOUND_CID>
5323

> <PUBCHEM_COMPOUND_CANONICALIZED>
1

> <PUBCHEM_CACTVS_COMPLEXITY>
420

> <PUBCHEM_CACTVS_HBOND_ACCEPTOR>
8

> <PUBCHEM_CACTVS_HBOND_DONOR>
2

> <PUBCHEM_CACTVS_ROTATABLE_BOND>
5

> <PUBCHEM_CACTVS_SUBSKEYS>
AAADccBzuABAAAAAAAAAAAAAAAAAAAAAAAA8QAAAAAAAAAABwAAAHgQQQAAACAiB0gIz9ZZIFAKgACZiZHDCiDkhIqAJmDg2bJiMLCLE+dmEJChqkApI6CcQAAAAAAQAAAAAAAAACAAAAAAAAAAAAAAAAA==

> <PUBCHEM_IUPAC_OPENEYE_NAME>
4-amino-N-(2,6-dimethoxypyrimidin-4-yl)benzenesulfonamide

> <PUBCHEM_IUPAC_CAS_NAME>
4-amino-N-(2,6-dimethoxy-4-pyrimidinyl)benzenesulfonamide

> <PUBCHEM_IUPAC_NAME>
4-amino-N-(2,6-dimethoxypyrimidin-4-yl)benzenesulfonamide

> <PUBCHEM_IUPAC_SYSTEMATIC_NAME>
4-azanyl-N-(2,6-dimethoxypyrimidin-4-yl)benzenesulfonamide

> <PUBCHEM_IUPAC_TRADITIONAL_NAME>
4-amino-N-(2,6-dimethoxypyrimidin-4-yl)benzenesulfonamide

> <PUBCHEM_IUPAC_INCHI>
InChI=1S/C12H14N4O4S/c1-19-11-7-10(14-12(15-11)20-2)16-21(17,18)9-5-3-8(13)4-6-9/h3-7H,13H2,1-2H3,(H,14,15,16)

> <PUBCHEM_IUPAC_INCHIKEY>
ZZORFUFYDOWNEF-UHFFFAOYSA-N

> <PUBCHEM_XLOGP3>
1.6

> <PUBCHEM_EXACT_MASS>
310.073576

> <PUBCHEM_MOLECULAR_FORMULA>
C12H14N4O4S

> <PUBCHEM_MOLECULAR_WEIGHT>
310.32896

> <PUBCHEM_OPENEYE_CAN_SMILES>
COC1=NC(=NC(=C1)NS(=O)(=O)C2=CC=C(C=C2)N)OC

> <PUBCHEM_OPENEYE_ISO_SMILES>
COC1=NC(=NC(=C1)NS(=O)(=O)C2=CC=C(C=C2)N)OC

> <PUBCHEM_CACTVS_TPSA>
125

> <PUBCHEM_MONOISOTOPIC_WEIGHT>
310.073576

> <PUBCHEM_TOTAL_CHARGE>
0

> <PUBCHEM_HEAVY_ATOM_COUNT>
21

> <PUBCHEM_ATOM_DEF_STEREO_COUNT>
0

> <PUBCHEM_ATOM_UDEF_STEREO_COUNT>
0

> <PUBCHEM_BOND_DEF_STEREO_COUNT>
0

> <PUBCHEM_BOND_UDEF_STEREO_COUNT>
0

> <PUBCHEM_ISOTOPIC_ATOM_COUNT>
0

> <PUBCHEM_COMPONENT_COUNT>
1

> <PUBCHEM_CACTVS_TAUTO_COUNT>
8

> <PUBCHEM_COORDINATE_TYPE>
1
5
255

> <PUBCHEM_BONDANNOTATIONS>
10  11  8
10  12  8
11  15  8
12  16  8
13  17  8
14  15  8
14  16  8
17  18  8
7  13  8
7  19  8
9  18  8
9  19  8

> <DRUG_ID>
w202

> <DRUG_NAME>
Sulfadimethoxine

$$$$
5326
  CDK     0927151942
null
 31 32  0  0  0  0  0  0  0  0999 V2000
    3.0000    0.1550    0.0000 S   0  0  0  0  0  0  0  0  0  0  0  0
    4.0000    0.1550    0.0000 O   0  0  0  0  0  0  0  0  0  0  0  0
    2.0000    0.1550    0.0000 O   0  0  0  0  0  0  0  0  0  0  0  0
    6.4641    3.1550    0.0000 O   0  0  0  0  0  0  0  0  0  0  0  0
    3.0000    1.1550    0.0000 N   0  0  0  0  0  0  0  0  0  0  0  0
    4.7320    1.1550    0.0000 N   0  0  0  0  0  0  0  0  0  0  0  0
    3.8660    2.6550    0.0000 N   0  0  0  0  0  0  0  0  0  0  0  0
    3.0000   -3.8450    0.0000 N   0  0  0  0  0  0  0  0  0  0  0  0
    3.0000   -0.8450    0.0000 C   0  0  0  0  0  0  0  0  0  0  0  0
    2.1340   -1.3450    0.0000 C   0  0  0  0  0  0  0  0  0  0  0  0
    3.8660   -1.3450    0.0000 C   0  0  0  0  0  0  0  0  0  0  0  0
    3.0000   -2.8450    0.0000 C   0  0  0  0  0  0  0  0  0  0  0  0
    2.1340   -2.3450    0.0000 C   0  0  0  0  0  0  0  0  0  0  0  0
    3.8660   -2.3450    0.0000 C   0  0  0  0  0  0  0  0  0  0  0  0
    3.8660    1.6550    0.0000 C   0  0  0  0  0  0  0  0  0  0  0  0
    5.5981    2.6550    0.0000 C   0  0  0  0  0  0  0  0  0  0  0  0
    5.5981    1.6550    0.0000 C   0  0  0  0  0  0  0  0  0  0  0  0
    4.7320    3.1550    0.0000 C   0  0  0  0  0  0  0  0  0  0  0  0
    6.4641    4.1550    0.0000 C   0  0  0  0  0  0  0  0  0  0  0  0
    1.5970   -1.0350    0.0000 H   0  0  0  0  0  0  0  0  0  0  0  0
    4.4030   -1.0350    0.0000 H   0  0  0  0  0  0  0  0  0  0  0  0
    2.4631    1.4650    0.0000 H   0  0  0  0  0  0  0  0  0  0  0  0
    1.5970   -2.6550    0.0000 H   0  0  0  0  0  0  0  0  0  0  0  0
    4.4030   -2.6550    0.0000 H   0  0  0  0  0  0  0  0  0  0  0  0
    6.1350    1.3450    0.0000 H   0  0  0  0  0  0  0  0  0  0  0  0
    4.7320    3.7750    0.0000 H   0  0  0  0  0  0  0  0  0  0  0  0
    2.4631   -4.1550    0.0000 H   0  0  0  0  0  0  0  0  0  0  0  0
    3.5369   -4.1550    0.0000 H   0  0  0  0  0  0  0  0  0  0  0  0
    7.0841    4.1550    0.0000 H   0  0  0  0  0  0  0  0  0  0  0  0
    6.4641    4.7750    0.0000 H   0  0  0  0  0  0  0  0  0  0  0  0
    5.8441    4.1550    0.0000 H   0  0  0  0  0  0  0  0  0  0  0  0
  1  2  2  0  0  0  0 
  1  3  2  0  0  0  0 
  1  5  1  0  0  0  0 
  1  9  1  0  0  0  0 
  4 16  1  0  0  0  0 
  4 19  1  0  0  0  0 
  5 15  1  0  0  0  0 
  5 22  1  0  0  0  0 
  6 15  1  0  0  0  0 
  6 17  2  0  0  0  0 
  7 15  2  0  0  0  0 
  7 18  1  0  0  0  0 
  8 12  1  0  0  0  0 
  8 27  1  0  0  0  0 
  8 28  1  0  0  0  0 
  9 10  2  0  0  0  0 
  9 11  1  0  0  0  0 
 10 13  1  0  0  0  0 
 10 20  1  0  0  0  0 
 11 14  2  0  0  0  0 
 11 21  1  0  0  0  0 
 12 13  2  0  0  0  0 
 12 14  1  0  0  0  0 
 13 23  1  0  0  0  0 
 14 24  1  0  0  0  0 
 16 17  1  0  0  0  0 
 16 18  2  0  0  0  0 
 17 25  1  0  0  0  0 
 18 26  1  0  0  0  0 
 19 29  1  0  0  0  0 
 19 30  1  0  0  0  0 
 19 31  1  0  0  0  0 
M  END
> <cdk:Title>
5326

> <cdk:Remark>
null

> <PUBCHEM_COMPOUND_CID>
5326

> <PUBCHEM_COMPOUND_CANONICALIZED>
1

> <PUBCHEM_CACTVS_COMPLEXITY>
368

> <PUBCHEM_CACTVS_HBOND_ACCEPTOR>
7

> <PUBCHEM_CACTVS_HBOND_DONOR>
2

> <PUBCHEM_CACTVS_ROTATABLE_BOND>
4

> <PUBCHEM_CACTVS_SUBSKEYS>
AAADccBzsABAAAAAAAAAAAAAAAAAAAAAAAA8QAAAAAAAAAABwAAAHgQQQAAACAzB0gY/15ZIFAKgADRnZHTCiDkxQqAJ2DgrZJiOKKLA2dGFJAhokAJYyCcQAAAAAAQAAAAAAAAACAAAAAAAAAAAAAAAAA==

> <PUBCHEM_IUPAC_OPENEYE_NAME>
4-amino-N-(5-methoxypyrimidin-2-yl)benzenesulfonamide

> <PUBCHEM_IUPAC_CAS_NAME>
4-amino-N-(5-methoxy-2-pyrimidinyl)benzenesulfonamide

> <PUBCHEM_IUPAC_NAME>
4-amino-N-(5-methoxypyrimidin-2-yl)benzenesulfonamide

> <PUBCHEM_IUPAC_SYSTEMATIC_NAME>
4-azanyl-N-(5-methoxypyrimidin-2-yl)benzenesulfonamide

> <PUBCHEM_IUPAC_TRADITIONAL_NAME>
4-amino-N-(5-methoxypyrimidin-2-yl)benzenesulfonamide

> <PUBCHEM_IUPAC_INCHI>
InChI=1S/C11H12N4O3S/c1-18-9-6-13-11(14-7-9)15-19(16,17)10-4-2-8(12)3-5-10/h2-7H,12H2,1H3,(H,13,14,15)

> <PUBCHEM_IUPAC_INCHIKEY>
GPTONYMQFTZPKC-UHFFFAOYSA-N

> <PUBCHEM_XLOGP3>
0.4

> <PUBCHEM_EXACT_MASS>
280.063011

> <PUBCHEM_MOLECULAR_FORMULA>
C11H12N4O3S

> <PUBCHEM_MOLECULAR_WEIGHT>
280.30298

> <PUBCHEM_OPENEYE_CAN_SMILES>
COC1=CN=C(N=C1)NS(=O)(=O)C2=CC=C(C=C2)N

> <PUBCHEM_OPENEYE_ISO_SMILES>
COC1=CN=C(N=C1)NS(=O)(=O)C2=CC=C(C=C2)N

> <PUBCHEM_CACTVS_TPSA>
116

> <PUBCHEM_MONOISOTOPIC_WEIGHT>
280.063011

> <PUBCHEM_TOTAL_CHARGE>
0

> <PUBCHEM_HEAVY_ATOM_COUNT>
19

> <PUBCHEM_ATOM_DEF_STEREO_COUNT>
0

> <PUBCHEM_ATOM_UDEF_STEREO_COUNT>
0

> <PUBCHEM_BOND_DEF_STEREO_COUNT>
0

> <PUBCHEM_BOND_UDEF_STEREO_COUNT>
0

> <PUBCHEM_ISOTOPIC_ATOM_COUNT>
0

> <PUBCHEM_COMPONENT_COUNT>
1

> <PUBCHEM_CACTVS_TAUTO_COUNT>
2

> <PUBCHEM_COORDINATE_TYPE>
1
5
255

> <PUBCHEM_BONDANNOTATIONS>
10  13  8
11  14  8
12  13  8
12  14  8
16  17  8
16  18  8
6  15  8
6  17  8
7  15  8
7  18  8
9  10  8
9  11  8

> <DRUG_ID>
w203

> <DRUG_NAME>
Sulfametoxydiazine

$$$$
3010818
  CDK     0927151942
null
102106  0  0  0  0  0  0  0  0999 V2000
    8.8006    0.2226    0.0000 O   0  0  0  0  0  0  0  0  0  0  0  0
    8.0000   -0.8793    0.0000 O   0  0  0  0  0  0  0  0  0  0  0  0
    7.0000   -4.3434    0.0000 O   0  0  0  0  0  0  0  0  0  0  0  0
   11.7862    2.2442    0.0000 O   0  0  0  0  0  0  0  0  0  0  0  0
    9.5208    3.6110    0.0000 O   0  0  0  0  0  0  0  0  0  0  0  0
    3.5000   -3.4774    0.0000 O   0  0  0  0  0  0  0  0  0  0  0  0
    9.5000   -1.7454    0.0000 N   0  0  0  0  0  0  0  0  0  0  0  0
   10.4479    0.7579    0.0000 N   0  0  0  0  0  0  0  0  0  0  0  0
    7.0000   -2.6114    0.0000 N   0  0  0  0  0  0  0  0  0  0  0  0
    5.0000   -2.6114    0.0000 N   0  0  0  0  0  0  0  0  0  0  0  0
   11.1681    4.1463    0.0000 N   0  0  0  0  0  0  0  0  0  0  0  0
    4.0000   -0.8793    0.0000 N   0  0  0  0  0  0  0  0  0  0  0  0
    2.0000   -0.8793    0.0000 N   0  0  0  0  0  0  0  0  0  0  0  0
   11.0388   -1.2454    0.0000 C   0  0  1  0  0  0  0  0  0  0  0  0
   11.0388   -2.2454    0.0000 C   0  0  1  0  0  0  0  0  0  0  0  0
   10.0878   -0.9363    0.0000 C   0  0  1  0  0  0  0  0  0  0  0  0
   11.9851   -0.9406    0.0000 C   0  0  0  0  0  0  0  0  0  0  0  0
   11.9851   -2.5501    0.0000 C   0  0  0  0  0  0  0  0  0  0  0  0
   10.0878   -2.5544    0.0000 C   0  0  0  0  0  0  0  0  0  0  0  0
   12.5687   -1.7454    0.0000 C   0  0  0  0  0  0  0  0  0  0  0  0
    9.7788    0.0147    0.0000 C   0  0  0  0  0  0  0  0  0  0  0  0
    8.5000   -1.7454    0.0000 C   0  0  0  0  0  0  0  0  0  0  0  0
    8.0000   -2.6114    0.0000 C   0  0  2  0  0  0  0  0  0  0  0  0
    8.5000   -3.4774    0.0000 C   0  0  0  0  0  0  0  0  0  0  0  0
   10.1389    1.7089    0.0000 C   0  0  1  0  0  0  0  0  0  0  0  0
    9.0000   -4.3434    0.0000 C   0  0  0  0  0  0  0  0  0  0  0  0
    7.6340   -3.9774    0.0000 C   0  0  0  0  0  0  0  0  0  0  0  0
    9.3660   -2.9774    0.0000 C   0  0  0  0  0  0  0  0  0  0  0  0
    5.0000   -4.3434    0.0000 C   0  0  0  0  0  0  0  0  0  0  0  0
    5.5000   -3.4774    0.0000 C   0  0  1  0  0  0  0  0  0  0  0  0
    6.5000   -3.4774    0.0000 C   0  0  0  0  0  0  0  0  0  0  0  0
    9.1607    1.9168    0.0000 C   0  0  0  0  0  0  0  0  0  0  0  0
    4.0000   -4.3434    0.0000 C   0  0  0  0  0  0  0  0  0  0  0  0
    5.5000   -5.2094    0.0000 C   0  0  0  0  0  0  0  0  0  0  0  0
   10.8080    2.4521    0.0000 C   0  0  0  0  0  0  0  0  0  0  0  0
    3.5000   -5.2094    0.0000 C   0  0  0  0  0  0  0  0  0  0  0  0
    5.0000   -6.0755    0.0000 C   0  0  0  0  0  0  0  0  0  0  0  0
    4.0000   -6.0755    0.0000 C   0  0  0  0  0  0  0  0  0  0  0  0
   10.8591    5.0973    0.0000 C   0  0  0  0  0  0  0  0  0  0  0  0
    8.8517    2.8679    0.0000 C   0  0  0  0  0  0  0  0  0  0  0  0
   11.0670    6.0755    0.0000 C   0  0  0  0  0  0  0  0  0  0  0  0
   10.1160    5.7665    0.0000 C   0  0  0  0  0  0  0  0  0  0  0  0
   10.4990    3.4031    0.0000 C   0  0  0  0  0  0  0  0  0  0  0  0
    7.8736    3.0758    0.0000 C   0  0  0  0  0  0  0  0  0  0  0  0
    4.0000   -2.6114    0.0000 C   0  0  0  0  0  0  0  0  0  0  0  0
    3.5000   -1.7454    0.0000 C   0  0  0  0  0  0  0  0  0  0  0  0
    2.5000   -1.7454    0.0000 C   0  0  0  0  0  0  0  0  0  0  0  0
    3.5000   -0.0133    0.0000 C   0  0  0  0  0  0  0  0  0  0  0  0
    2.5000   -0.0133    0.0000 C   0  0  0  0  0  0  0  0  0  0  0  0
   11.0399   -0.3954    0.0000 H   0  0  0  0  0  0  0  0  0  0  0  0
   11.0399   -3.0954    0.0000 H   0  0  0  0  0  0  0  0  0  0  0  0
    9.4754   -0.8393    0.0000 H   0  0  0  0  0  0  0  0  0  0  0  0
   12.5224   -0.6314    0.0000 H   0  0  0  0  0  0  0  0  0  0  0  0
   11.7340   -0.3737    0.0000 H   0  0  0  0  0  0  0  0  0  0  0  0
   11.7340   -3.1170    0.0000 H   0  0  0  0  0  0  0  0  0  0  0  0
   12.5224   -2.8593    0.0000 H   0  0  0  0  0  0  0  0  0  0  0  0
    9.5508   -2.8644    0.0000 H   0  0  0  0  0  0  0  0  0  0  0  0
   10.3400   -3.1208    0.0000 H   0  0  0  0  0  0  0  0  0  0  0  0
   13.0295   -2.1601    0.0000 H   0  0  0  0  0  0  0  0  0  0  0  0
   13.0295   -1.3306    0.0000 H   0  0  0  0  0  0  0  0  0  0  0  0
    7.6900   -2.0744    0.0000 H   0  0  0  0  0  0  0  0  0  0  0  0
   11.0544    0.6290    0.0000 H   0  0  0  0  0  0  0  0  0  0  0  0
    6.6900   -2.0744    0.0000 H   0  0  0  0  0  0  0  0  0  0  0  0
    9.7240    1.2482    0.0000 H   0  0  0  0  0  0  0  0  0  0  0  0
    9.6760   -3.5143    0.0000 H   0  0  0  0  0  0  0  0  0  0  0  0
    9.9030   -2.6674    0.0000 H   0  0  0  0  0  0  0  0  0  0  0  0
    9.0560   -2.4405    0.0000 H   0  0  0  0  0  0  0  0  0  0  0  0
    7.3240   -3.4405    0.0000 H   0  0  0  0  0  0  0  0  0  0  0  0
    7.0970   -4.2874    0.0000 H   0  0  0  0  0  0  0  0  0  0  0  0
    7.9440   -4.5143    0.0000 H   0  0  0  0  0  0  0  0  0  0  0  0
    8.4631   -4.6534    0.0000 H   0  0  0  0  0  0  0  0  0  0  0  0
    9.3100   -4.8804    0.0000 H   0  0  0  0  0  0  0  0  0  0  0  0
    9.5369   -4.0334    0.0000 H   0  0  0  0  0  0  0  0  0  0  0  0
    5.6200   -4.3434    0.0000 H   0  0  0  0  0  0  0  0  0  0  0  0
    4.8800   -3.4774    0.0000 H   0  0  0  0  0  0  0  0  0  0  0  0
    8.5468    1.8306    0.0000 H   0  0  0  0  0  0  0  0  0  0  0  0
    9.1391    1.2972    0.0000 H   0  0  0  0  0  0  0  0  0  0  0  0
    4.1077   -3.7328    0.0000 H   0  0  0  0  0  0  0  0  0  0  0  0
    3.4174   -4.1314    0.0000 H   0  0  0  0  0  0  0  0  0  0  0  0
    5.9750   -5.6080    0.0000 H   0  0  0  0  0  0  0  0  0  0  0  0
    5.9750   -4.8109    0.0000 H   0  0  0  0  0  0  0  0  0  0  0  0
    4.8923   -6.6861    0.0000 H   0  0  0  0  0  0  0  0  0  0  0  0
    3.0250   -4.8109    0.0000 H   0  0  0  0  0  0  0  0  0  0  0  0
    3.0250   -5.6080    0.0000 H   0  0  0  0  0  0  0  0  0  0  0  0
    5.5826   -6.2875    0.0000 H   0  0  0  0  0  0  0  0  0  0  0  0
    3.4174   -6.2875    0.0000 H   0  0  0  0  0  0  0  0  0  0  0  0
    4.1077   -6.6861    0.0000 H   0  0  0  0  0  0  0  0  0  0  0  0
   11.4783    5.1298    0.0000 H   0  0  0  0  0  0  0  0  0  0  0  0
   11.6866    6.0538    0.0000 H   0  0  0  0  0  0  0  0  0  0  0  0
    9.8249    6.3139    0.0000 H   0  0  0  0  0  0  0  0  0  0  0  0
    9.6274    5.3848    0.0000 H   0  0  0  0  0  0  0  0  0  0  0  0
   10.9807    6.6894    0.0000 H   0  0  0  0  0  0  0  0  0  0  0  0
    9.4657    2.9542    0.0000 H   0  0  0  0  0  0  0  0  0  0  0  0
    8.8734    3.4875    0.0000 H   0  0  0  0  0  0  0  0  0  0  0  0
    5.3100   -2.0744    0.0000 H   0  0  0  0  0  0  0  0  0  0  0  0
   11.7746    4.0174    0.0000 H   0  0  0  0  0  0  0  0  0  0  0  0
    8.0025    3.6823    0.0000 H   0  0  0  0  0  0  0  0  0  0  0  0
    7.2671    3.2047    0.0000 H   0  0  0  0  0  0  0  0  0  0  0  0
    7.7447    2.4694    0.0000 H   0  0  0  0  0  0  0  0  0  0  0  0
    2.1900   -2.2823    0.0000 H   0  0  0  0  0  0  0  0  0  0  0  0
    3.8100    0.5236    0.0000 H   0  0  0  0  0  0  0  0  0  0  0  0
    2.1900    0.5236    0.0000 H   0  0  0  0  0  0  0  0  0  0  0  0
  1 21  2  0  0  0  0 
  2 22  2  0  0  0  0 
  3 31  2  0  0  0  0 
  4 35  2  0  0  0  0 
  5 43  2  0  0  0  0 
  6 45  2  0  0  0  0 
  7 16  1  0  0  0  0 
  7 19  1  0  0  0  0 
  7 22  1  0  0  0  0 
  8 21  1  0  0  0  0 
 25  8  1  1  0  0  0 
  8 62  1  0  0  0  0 
 23  9  1  6  0  0  0 
  9 31  1  0  0  0  0 
  9 63  1  0  0  0  0 
 30 10  1  6  0  0  0 
 10 45  1  0  0  0  0 
 10 95  1  0  0  0  0 
 11 39  1  0  0  0  0 
 11 43  1  0  0  0  0 
 11 96  1  0  0  0  0 
 12 46  2  0  0  0  0 
 12 48  1  0  0  0  0 
 13 47  2  0  0  0  0 
 13 49  1  0  0  0  0 
 14 15  1  0  0  0  0 
 14 16  1  0  0  0  0 
 14 17  1  0  0  0  0 
 14 50  1  6  0  0  0 
 15 18  1  0  0  0  0 
 15 19  1  0  0  0  0 
 15 51  1  6  0  0  0 
 16 21  1  6  0  0  0 
 16 52  1  0  0  0  0 
 17 20  1  0  0  0  0 
 17 53  1  0  0  0  0 
 17 54  1  0  0  0  0 
 18 20  1  0  0  0  0 
 18 55  1  0  0  0  0 
 18 56  1  0  0  0  0 
 19 57  1  0  0  0  0 
 19 58  1  0  0  0  0 
 20 59  1  0  0  0  0 
 20 60  1  0  0  0  0 
 22 23  1  0  0  0  0 
 23 24  1  0  0  0  0 
 23 61  1  0  0  0  0 
 24 26  1  0  0  0  0 
 24 27  1  0  0  0  0 
 24 28  1  0  0  0  0 
 25 32  1  0  0  0  0 
 25 35  1  0  0  0  0 
 25 64  1  0  0  0  0 
 26 71  1  0  0  0  0 
 26 72  1  0  0  0  0 
 26 73  1  0  0  0  0 
 27 68  1  0  0  0  0 
 27 69  1  0  0  0  0 
 27 70  1  0  0  0  0 
 28 65  1  0  0  0  0 
 28 66  1  0  0  0  0 
 28 67  1  0  0  0  0 
 29 30  1  0  0  0  0 
 29 33  1  0  0  0  0 
 29 34  1  0  0  0  0 
 29 74  1  0  0  0  0 
 30 31  1  0  0  0  0 
 30 75  1  0  0  0  0 
 32 40  1  0  0  0  0 
 32 76  1  0  0  0  0 
 32 77  1  0  0  0  0 
 33 36  1  0  0  0  0 
 33 78  1  0  0  0  0 
 33 79  1  0  0  0  0 
 34 37  1  0  0  0  0 
 34 80  1  0  0  0  0 
 34 81  1  0  0  0  0 
 35 43  1  0  0  0  0 
 36 38  1  0  0  0  0 
 36 83  1  0  0  0  0 
 36 84  1  0  0  0  0 
 37 38  1  0  0  0  0 
 37 82  1  0  0  0  0 
 37 85  1  0  0  0  0 
 38 86  1  0  0  0  0 
 38 87  1  0  0  0  0 
 39 41  1  0  0  0  0 
 39 42  1  0  0  0  0 
 39 88  1  0  0  0  0 
 40 44  1  0  0  0  0 
 40 93  1  0  0  0  0 
 40 94  1  0  0  0  0 
 41 42  1  0  0  0  0 
 41 89  1  0  0  0  0 
 41 92  1  0  0  0  0 
 42 90  1  0  0  0  0 
 42 91  1  0  0  0  0 
 44 97  1  0  0  0  0 
 44 98  1  0  0  0  0 
 44 99  1  0  0  0  0 
 45 46  1  0  0  0  0 
 46 47  1  0  0  0  0 
 47100  1  0  0  0  0 
 48 49  2  0  0  0  0 
 48101  1  0  0  0  0 
 49102  1  0  0  0  0 
M  END
> <cdk:Title>
3010818

> <cdk:Remark>
null

> <PUBCHEM_COMPOUND_CID>
3010818

> <PUBCHEM_COMPOUND_CANONICALIZED>
1

> <PUBCHEM_CACTVS_COMPLEXITY>
1240

> <PUBCHEM_CACTVS_HBOND_ACCEPTOR>
8

> <PUBCHEM_CACTVS_HBOND_DONOR>
4

> <PUBCHEM_CACTVS_ROTATABLE_BOND>
14

> <PUBCHEM_CACTVS_SUBSKEYS>
AAADcfB/uAAAAAAAAAAAAAAAGAAAAeIAAAA8QAAAAAAWAAABgAAAHgAQAAAADyzBlgQugBPIEACoAZV3VACAgCQXEiAIUIG4dEAAQFpAwCAUAIgAFgDAAMEYiYCPgAAAAAAAAAAAAAAAAAAAAAAACAAAAA==

> <PUBCHEM_IUPAC_OPENEYE_NAME>
(3S,3aS,6aR)-2-[(2S)-2-[[(2S)-2-cyclohexyl-2-(pyrazine-2-carbonylamino)acetyl]amino]-3,3-dimethyl-butanoyl]-N-[(1S)-1-[2-(cyclopropylamino)-2-oxo-acetyl]butyl]-3,3a,4,5,6,6a-hexahydro-1H-cyclopenta[c]pyrrole-3-carboxamide

> <PUBCHEM_IUPAC_CAS_NAME>
(3S,3aS,6aR)-2-[(2S)-2-[[(2S)-2-cyclohexyl-1-oxo-2-[[oxo(2-pyrazinyl)methyl]amino]ethyl]amino]-3,3-dimethyl-1-oxobutyl]-N-[(3S)-1-(cyclopropylamino)-1,2-dioxohexan-3-yl]-3,3a,4,5,6,6a-hexahydro-1H-cyclopenta[c]pyrrole-3-carboxamide

> <PUBCHEM_IUPAC_NAME>
(3S,3aS,6aR)-2-[(2S)-2-[[(2S)-2-cyclohexyl-2-(pyrazine-2-carbonylamino)acetyl]amino]-3,3-dimethylbutanoyl]-N-[(3S)-1-(cyclopropylamino)-1,2-dioxohexan-3-yl]-3,3a,4,5,6,6a-hexahydro-1H-cyclopenta[c]pyrrole-3-carboxamide

> <PUBCHEM_IUPAC_SYSTEMATIC_NAME>
(3S,3aS,6aR)-2-[(2S)-2-[[(2S)-2-cyclohexyl-2-(pyrazin-2-ylcarbonylamino)ethanoyl]amino]-3,3-dimethyl-butanoyl]-N-[(3S)-1-(cyclopropylamino)-1,2-bis(oxidanylidene)hexan-3-yl]-3,3a,4,5,6,6a-hexahydro-1H-cyclopenta[c]pyrrole-3-carboxamide

> <PUBCHEM_IUPAC_TRADITIONAL_NAME>
(3S,3aS,6aR)-2-[(2S)-2-[[(2S)-2-cyclohexyl-2-(pyrazinoylamino)acetyl]amino]-3,3-dimethyl-butanoyl]-N-[(1S)-1-[2-(cyclopropylamino)-2-keto-acetyl]butyl]-3,3a,4,5,6,6a-hexahydro-1H-cyclopenta[c]pyrrole-3-carboxamide

> <PUBCHEM_IUPAC_INCHI>
InChI=1S/C36H53N7O6/c1-5-10-25(29(44)34(48)39-23-15-16-23)40-33(47)28-24-14-9-13-22(24)20-43(28)35(49)30(36(2,3)4)42-32(46)27(21-11-7-6-8-12-21)41-31(45)26-19-37-17-18-38-26/h17-19,21-25,27-28,30H,5-16,20H2,1-4H3,(H,39,48)(H,40,47)(H,41,45)(H,42,46)/t22-,24-,25-,27-,28-,30+/m0/s1

> <PUBCHEM_IUPAC_INCHIKEY>
BBAWEDCPNXPBQM-GDEBMMAJSA-N

> <PUBCHEM_XLOGP3_AA>
4.2

> <PUBCHEM_EXACT_MASS>
679.405732

> <PUBCHEM_MOLECULAR_FORMULA>
C36H53N7O6

> <PUBCHEM_MOLECULAR_WEIGHT>
679.84932

> <PUBCHEM_OPENEYE_CAN_SMILES>
CCCC(C(=O)C(=O)NC1CC1)NC(=O)C2C3CCCC3CN2C(=O)C(C(C)(C)C)NC(=O)C(C4CCCCC4)NC(=O)C5=NC=CN=C5

> <PUBCHEM_OPENEYE_ISO_SMILES>
CCC[C@@H](C(=O)C(=O)NC1CC1)NC(=O)[C@@H]2[C@H]3CCC[C@H]3CN2C(=O)[C@H](C(C)(C)C)NC(=O)[C@H](C4CCCCC4)NC(=O)C5=NC=CN=C5

> <PUBCHEM_CACTVS_TPSA>
180

> <PUBCHEM_MONOISOTOPIC_WEIGHT>
679.405732

> <PUBCHEM_TOTAL_CHARGE>
0

> <PUBCHEM_HEAVY_ATOM_COUNT>
49

> <PUBCHEM_ATOM_DEF_STEREO_COUNT>
6

> <PUBCHEM_ATOM_UDEF_STEREO_COUNT>
0

> <PUBCHEM_BOND_DEF_STEREO_COUNT>
0

> <PUBCHEM_BOND_UDEF_STEREO_COUNT>
0

> <PUBCHEM_ISOTOPIC_ATOM_COUNT>
0

> <PUBCHEM_COMPONENT_COUNT>
1

> <PUBCHEM_CACTVS_TAUTO_COUNT>
48

> <PUBCHEM_COORDINATE_TYPE>
1
5
255

> <PUBCHEM_BONDANNOTATIONS>
30  10  6
12  46  8
12  48  8
13  47  8
13  49  8
14  50  6
15  51  6
16  21  6
46  47  8
48  49  8
25  8  5
23  9  6

> <DRUG_ID>
w204

> <DRUG_NAME>
Telaprevir

$$$$
2662
  CDK     0927151942
null
 40 42  0  0  0  0  0  0  0  0999 V2000
    3.8968   -2.9234    0.0000 S   0  0  0  0  0  0  0  0  0  0  0  0
    2.2212    4.2334    0.0000 F   0  0  0  0  0  0  0  0  0  0  0  0
    3.6180    4.0122    0.0000 F   0  0  0  0  0  0  0  0  0  0  0  0
    2.0000    2.8366    0.0000 F   0  0  0  0  0  0  0  0  0  0  0  0
    2.8968   -2.9234    0.0000 O   0  0  0  0  0  0  0  0  0  0  0  0
    4.8968   -2.9234    0.0000 O   0  0  0  0  0  0  0  0  0  0  0  0
    3.8968    1.0766    0.0000 N   0  0  0  0  0  0  0  0  0  0  0  0
    3.0878    1.6644    0.0000 N   0  0  0  0  0  0  0  0  0  0  0  0
    3.8968   -3.9234    0.0000 N   0  0  0  0  0  0  0  0  0  0  0  0
    4.7058    1.6644    0.0000 C   0  0  0  0  0  0  0  0  0  0  0  0
    3.8968    0.0766    0.0000 C   0  0  0  0  0  0  0  0  0  0  0  0
    5.6569    1.3553    0.0000 C   0  0  0  0  0  0  0  0  0  0  0  0
    4.3968    2.6154    0.0000 C   0  0  0  0  0  0  0  0  0  0  0  0
    3.3968    2.6154    0.0000 C   0  0  0  0  0  0  0  0  0  0  0  0
    3.0308   -0.4234    0.0000 C   0  0  0  0  0  0  0  0  0  0  0  0
    4.7628   -0.4234    0.0000 C   0  0  0  0  0  0  0  0  0  0  0  0
    3.8968   -1.9234    0.0000 C   0  0  0  0  0  0  0  0  0  0  0  0
    5.8648    0.3772    0.0000 C   0  0  0  0  0  0  0  0  0  0  0  0
    6.4000    2.0245    0.0000 C   0  0  0  0  0  0  0  0  0  0  0  0
    3.0308   -1.4234    0.0000 C   0  0  0  0  0  0  0  0  0  0  0  0
    4.7628   -1.4234    0.0000 C   0  0  0  0  0  0  0  0  0  0  0  0
    7.5590    0.7373    0.0000 C   0  0  0  0  0  0  0  0  0  0  0  0
    6.8158    0.0682    0.0000 C   0  0  0  0  0  0  0  0  0  0  0  0
    7.3511    1.7154    0.0000 C   0  0  0  0  0  0  0  0  0  0  0  0
    2.8090    3.4244    0.0000 C   0  0  0  0  0  0  0  0  0  0  0  0
    8.5100    0.4283    0.0000 C   0  0  0  0  0  0  0  0  0  0  0  0
    4.7612    3.1170    0.0000 H   0  0  0  0  0  0  0  0  0  0  0  0
    2.4938   -0.1134    0.0000 H   0  0  0  0  0  0  0  0  0  0  0  0
    5.2998   -0.1134    0.0000 H   0  0  0  0  0  0  0  0  0  0  0  0
    5.4040   -0.0377    0.0000 H   0  0  0  0  0  0  0  0  0  0  0  0
    6.2711    2.6309    0.0000 H   0  0  0  0  0  0  0  0  0  0  0  0
    2.4938   -1.7334    0.0000 H   0  0  0  0  0  0  0  0  0  0  0  0
    5.2998   -1.7334    0.0000 H   0  0  0  0  0  0  0  0  0  0  0  0
    6.9448   -0.5383    0.0000 H   0  0  0  0  0  0  0  0  0  0  0  0
    7.8118    2.1303    0.0000 H   0  0  0  0  0  0  0  0  0  0  0  0
    8.3184   -0.1614    0.0000 H   0  0  0  0  0  0  0  0  0  0  0  0
    9.0997    0.2367    0.0000 H   0  0  0  0  0  0  0  0  0  0  0  0
    8.7016    1.0179    0.0000 H   0  0  0  0  0  0  0  0  0  0  0  0
    3.3599   -4.2334    0.0000 H   0  0  0  0  0  0  0  0  0  0  0  0
    4.4337   -4.2334    0.0000 H   0  0  0  0  0  0  0  0  0  0  0  0
  1  5  2  0  0  0  0 
  1  6  2  0  0  0  0 
  1  9  1  0  0  0  0 
  1 17  1  0  0  0  0 
  2 25  1  0  0  0  0 
  3 25  1  0  0  0  0 
  4 25  1  0  0  0  0 
  7  8  1  0  0  0  0 
  7 10  1  0  0  0  0 
  7 11  1  0  0  0  0 
  8 14  2  0  0  0  0 
  9 39  1  0  0  0  0 
  9 40  1  0  0  0  0 
 10 12  1  0  0  0  0 
 10 13  2  0  0  0  0 
 11 15  2  0  0  0  0 
 11 16  1  0  0  0  0 
 12 18  2  0  0  0  0 
 12 19  1  0  0  0  0 
 13 14  1  0  0  0  0 
 13 27  1  0  0  0  0 
 14 25  1  0  0  0  0 
 15 20  1  0  0  0  0 
 15 28  1  0  0  0  0 
 16 21  2  0  0  0  0 
 16 29  1  0  0  0  0 
 17 20  2  0  0  0  0 
 17 21  1  0  0  0  0 
 18 23  1  0  0  0  0 
 18 30  1  0  0  0  0 
 19 24  2  0  0  0  0 
 19 31  1  0  0  0  0 
 20 32  1  0  0  0  0 
 21 33  1  0  0  0  0 
 22 23  2  0  0  0  0 
 22 24  1  0  0  0  0 
 22 26  1  0  0  0  0 
 23 34  1  0  0  0  0 
 24 35  1  0  0  0  0 
 26 36  1  0  0  0  0 
 26 37  1  0  0  0  0 
 26 38  1  0  0  0  0 
M  END
> <cdk:Title>
2662

> <cdk:Remark>
null

> <PUBCHEM_COMPOUND_CID>
2662

> <PUBCHEM_COMPOUND_CANONICALIZED>
1

> <PUBCHEM_CACTVS_COMPLEXITY>
577

> <PUBCHEM_CACTVS_HBOND_ACCEPTOR>
7

> <PUBCHEM_CACTVS_HBOND_DONOR>
1

> <PUBCHEM_CACTVS_ROTATABLE_BOND>
3

> <PUBCHEM_CACTVS_SUBSKEYS>
AAADccB7MYBAAAAAAAAAAAAAAAAAAWAAAAAwYAAAAAAAAAAB0AAAHQQYQAAADAiBXhAywZIIAAKiAyRiRHDSBDAhAgAYmDgwZJgIIOLA0dGEpAhgiADIyAcQgMAOQAQAAAAAAACACAAAAAAAAAAAAAAAAA==

> <PUBCHEM_IUPAC_OPENEYE_NAME>
4-[5-(p-tolyl)-3-(trifluoromethyl)pyrazol-1-yl]benzenesulfonamide

> <PUBCHEM_IUPAC_CAS_NAME>
4-[5-(4-methylphenyl)-3-(trifluoromethyl)-1-pyrazolyl]benzenesulfonamide

> <PUBCHEM_IUPAC_NAME>
4-[5-(4-methylphenyl)-3-(trifluoromethyl)pyrazol-1-yl]benzenesulfonamide

> <PUBCHEM_IUPAC_SYSTEMATIC_NAME>
4-[5-(4-methylphenyl)-3-(trifluoromethyl)pyrazol-1-yl]benzenesulfonamide

> <PUBCHEM_IUPAC_TRADITIONAL_NAME>
4-[5-(p-tolyl)-3-(trifluoromethyl)pyrazol-1-yl]benzenesulfonamide

> <PUBCHEM_IUPAC_INCHI>
InChI=1S/C17H14F3N3O2S/c1-11-2-4-12(5-3-11)15-10-16(17(18,19)20)22-23(15)13-6-8-14(9-7-13)26(21,24)25/h2-10H,1H3,(H2,21,24,25)

> <PUBCHEM_IUPAC_INCHIKEY>
RZEKVGVHFLEQIL-UHFFFAOYSA-N

> <PUBCHEM_XLOGP3_AA>
3.4

> <PUBCHEM_EXACT_MASS>
381.075882

> <PUBCHEM_MOLECULAR_FORMULA>
C17H14F3N3O2S

> <PUBCHEM_MOLECULAR_WEIGHT>
381.37217

> <PUBCHEM_OPENEYE_CAN_SMILES>
CC1=CC=C(C=C1)C2=CC(=NN2C3=CC=C(C=C3)S(=O)(=O)N)C(F)(F)F

> <PUBCHEM_OPENEYE_ISO_SMILES>
CC1=CC=C(C=C1)C2=CC(=NN2C3=CC=C(C=C3)S(=O)(=O)N)C(F)(F)F

> <PUBCHEM_CACTVS_TPSA>
86.4

> <PUBCHEM_MONOISOTOPIC_WEIGHT>
381.075882

> <PUBCHEM_TOTAL_CHARGE>
0

> <PUBCHEM_HEAVY_ATOM_COUNT>
26

> <PUBCHEM_ATOM_DEF_STEREO_COUNT>
0

> <PUBCHEM_ATOM_UDEF_STEREO_COUNT>
0

> <PUBCHEM_BOND_DEF_STEREO_COUNT>
0

> <PUBCHEM_BOND_UDEF_STEREO_COUNT>
0

> <PUBCHEM_ISOTOPIC_ATOM_COUNT>
0

> <PUBCHEM_COMPONENT_COUNT>
1

> <PUBCHEM_CACTVS_TAUTO_COUNT>
1

> <PUBCHEM_COORDINATE_TYPE>
1
5
255

> <PUBCHEM_BONDANNOTATIONS>
10  13  8
11  15  8
11  16  8
12  18  8
12  19  8
13  14  8
15  20  8
16  21  8
17  20  8
17  21  8
18  23  8
19  24  8
22  23  8
22  24  8
7  10  8
7  8  8
8  14  8

> <DRUG_ID>
w205

> <DRUG_NAME>
Celecoxib

$$$$
2375
  CDK     0927151942
null
 43 44  0  0  0  0  0  0  0  0999 V2000
    8.9282   -2.0485    0.0000 S   0  0  0  0  0  0  0  0  0  0  0  0
   12.3923   -0.0485    0.0000 F   0  0  0  0  0  0  0  0  0  0  0  0
    4.5981    3.4515    0.0000 F   0  0  0  0  0  0  0  0  0  0  0  0
    5.5981    2.4515    0.0000 F   0  0  0  0  0  0  0  0  0  0  0  0
    3.5981    2.4515    0.0000 F   0  0  0  0  0  0  0  0  0  0  0  0
    6.6962   -2.9145    0.0000 O   0  0  0  0  0  0  0  0  0  0  0  0
    9.4282   -2.9145    0.0000 O   0  0  0  0  0  0  0  0  0  0  0  0
    8.4282   -1.1825    0.0000 O   0  0  0  0  0  0  0  0  0  0  0  0
    5.4641   -2.0485    0.0000 O   0  0  0  0  0  0  0  0  0  0  0  0
    6.3301   -0.5485    0.0000 N   0  0  0  0  0  0  0  0  0  0  0  0
    2.0000    1.9515    0.0000 N   0  0  0  0  0  0  0  0  0  0  0  0
    7.1962   -2.0485    0.0000 C   0  0  3  0  0  0  0  0  0  0  0  0
    8.0622   -2.5485    0.0000 C   0  0  0  0  0  0  0  0  0  0  0  0
    7.6962   -1.1825    0.0000 C   0  0  0  0  0  0  0  0  0  0  0  0
    6.3301   -1.5485    0.0000 C   0  0  0  0  0  0  0  0  0  0  0  0
    9.7942   -1.5485    0.0000 C   0  0  0  0  0  0  0  0  0  0  0  0
    5.4641   -0.0485    0.0000 C   0  0  0  0  0  0  0  0  0  0  0  0
    9.7942   -0.5485    0.0000 C   0  0  0  0  0  0  0  0  0  0  0  0
   10.6603   -2.0485    0.0000 C   0  0  0  0  0  0  0  0  0  0  0  0
    5.4641    0.9515    0.0000 C   0  0  0  0  0  0  0  0  0  0  0  0
   10.6603   -0.0485    0.0000 C   0  0  0  0  0  0  0  0  0  0  0  0
   11.5263   -1.5485    0.0000 C   0  0  0  0  0  0  0  0  0  0  0  0
    4.5981   -0.5485    0.0000 C   0  0  0  0  0  0  0  0  0  0  0  0
    4.5981    1.4515    0.0000 C   0  0  0  0  0  0  0  0  0  0  0  0
   11.5263   -0.5485    0.0000 C   0  0  0  0  0  0  0  0  0  0  0  0
    3.7320    0.9515    0.0000 C   0  0  0  0  0  0  0  0  0  0  0  0
    3.7320   -0.0485    0.0000 C   0  0  0  0  0  0  0  0  0  0  0  0
    4.5981    2.4515    0.0000 C   0  0  0  0  0  0  0  0  0  0  0  0
    2.8660    1.4515    0.0000 C   0  0  0  0  0  0  0  0  0  0  0  0
    7.6636   -3.0235    0.0000 H   0  0  0  0  0  0  0  0  0  0  0  0
    8.4607   -3.0235    0.0000 H   0  0  0  0  0  0  0  0  0  0  0  0
    8.2331   -1.4925    0.0000 H   0  0  0  0  0  0  0  0  0  0  0  0
    8.0062   -0.6456    0.0000 H   0  0  0  0  0  0  0  0  0  0  0  0
    7.1592   -0.8725    0.0000 H   0  0  0  0  0  0  0  0  0  0  0  0
    6.8671   -0.2385    0.0000 H   0  0  0  0  0  0  0  0  0  0  0  0
    7.0062   -3.4515    0.0000 H   0  0  0  0  0  0  0  0  0  0  0  0
    9.2573   -0.2385    0.0000 H   0  0  0  0  0  0  0  0  0  0  0  0
   10.6603   -2.6685    0.0000 H   0  0  0  0  0  0  0  0  0  0  0  0
    6.0010    1.2615    0.0000 H   0  0  0  0  0  0  0  0  0  0  0  0
   10.6603    0.5715    0.0000 H   0  0  0  0  0  0  0  0  0  0  0  0
   12.0632   -1.8585    0.0000 H   0  0  0  0  0  0  0  0  0  0  0  0
    4.5981   -1.1685    0.0000 H   0  0  0  0  0  0  0  0  0  0  0  0
    3.1951   -0.3585    0.0000 H   0  0  0  0  0  0  0  0  0  0  0  0
  1  7  2  0  0  0  0 
  1  8  2  0  0  0  0 
  1 13  1  0  0  0  0 
  1 16  1  0  0  0  0 
  2 25  1  0  0  0  0 
  3 28  1  0  0  0  0 
  4 28  1  0  0  0  0 
  5 28  1  0  0  0  0 
  6 12  1  0  0  0  0 
  6 36  1  0  0  0  0 
  9 15  2  0  0  0  0 
 10 15  1  0  0  0  0 
 10 17  1  0  0  0  0 
 10 35  1  0  0  0  0 
 11 29  3  0  0  0  0 
 12 13  1  0  0  0  0 
 12 14  1  0  0  0  0 
 12 15  1  0  0  0  0 
 13 30  1  0  0  0  0 
 13 31  1  0  0  0  0 
 14 32  1  0  0  0  0 
 14 33  1  0  0  0  0 
 14 34  1  0  0  0  0 
 16 18  2  0  0  0  0 
 16 19  1  0  0  0  0 
 17 20  2  0  0  0  0 
 17 23  1  0  0  0  0 
 18 21  1  0  0  0  0 
 18 37  1  0  0  0  0 
 19 22  2  0  0  0  0 
 19 38  1  0  0  0  0 
 20 24  1  0  0  0  0 
 20 39  1  0  0  0  0 
 21 25  2  0  0  0  0 
 21 40  1  0  0  0  0 
 22 25  1  0  0  0  0 
 22 41  1  0  0  0  0 
 23 27  2  0  0  0  0 
 23 42  1  0  0  0  0 
 24 26  2  0  0  0  0 
 24 28  1  0  0  0  0 
 26 27  1  0  0  0  0 
 26 29  1  0  0  0  0 
 27 43  1  0  0  0  0 
M  END
> <cdk:Title>
2375

> <cdk:Remark>
null

> <PUBCHEM_COMPOUND_CID>
2375

> <PUBCHEM_COMPOUND_CANONICALIZED>
1

> <PUBCHEM_CACTVS_COMPLEXITY>
750

> <PUBCHEM_CACTVS_HBOND_ACCEPTOR>
9

> <PUBCHEM_CACTVS_HBOND_DONOR>
2

> <PUBCHEM_CACTVS_ROTATABLE_BOND>
5

> <PUBCHEM_CACTVS_SUBSKEYS>
AAADccB7OcBAAAAAAAAAAAAAAAAAAAAAAAAwYAAAAAAAAAABQAAAHwQQCAAADEyF2BiywYLAAgqYBiVSUHLiAAAhChAIiBlAZIgKoCLgkZGEIAhglAD4yA8QgIAOiAAAQAAQAAAQAACAACAAAAAAAAAAAA==

> <PUBCHEM_IUPAC_OPENEYE_NAME>
N-[4-cyano-3-(trifluoromethyl)phenyl]-3-(4-fluorophenyl)sulfonyl-2-hydroxy-2-methyl-propanamide

> <PUBCHEM_IUPAC_CAS_NAME>
N-[4-cyano-3-(trifluoromethyl)phenyl]-3-(4-fluorophenyl)sulfonyl-2-hydroxy-2-methylpropanamide

> <PUBCHEM_IUPAC_NAME>
N-[4-cyano-3-(trifluoromethyl)phenyl]-3-(4-fluorophenyl)sulfonyl-2-hydroxy-2-methylpropanamide

> <PUBCHEM_IUPAC_SYSTEMATIC_NAME>
N-[4-cyano-3-(trifluoromethyl)phenyl]-3-(4-fluorophenyl)sulfonyl-2-methyl-2-oxidanyl-propanamide

> <PUBCHEM_IUPAC_TRADITIONAL_NAME>
N-[4-cyano-3-(trifluoromethyl)phenyl]-3-(4-fluorophenyl)sulfonyl-2-hydroxy-2-methyl-propionamide

> <PUBCHEM_IUPAC_INCHI>
InChI=1S/C18H14F4N2O4S/c1-17(26,10-29(27,28)14-6-3-12(19)4-7-14)16(25)24-13-5-2-11(9-23)15(8-13)18(20,21)22/h2-8,26H,10H2,1H3,(H,24,25)

> <PUBCHEM_IUPAC_INCHIKEY>
LKJPYSCBVHEWIU-UHFFFAOYSA-N

> <PUBCHEM_XLOGP3_AA>
2.3

> <PUBCHEM_EXACT_MASS>
430.061041

> <PUBCHEM_MOLECULAR_FORMULA>
C18H14F4N2O4S

> <PUBCHEM_MOLECULAR_WEIGHT>
430.373373

> <PUBCHEM_OPENEYE_CAN_SMILES>
CC(CS(=O)(=O)C1=CC=C(C=C1)F)(C(=O)NC2=CC(=C(C=C2)C#N)C(F)(F)F)O

> <PUBCHEM_OPENEYE_ISO_SMILES>
CC(CS(=O)(=O)C1=CC=C(C=C1)F)(C(=O)NC2=CC(=C(C=C2)C#N)C(F)(F)F)O

> <PUBCHEM_CACTVS_TPSA>
116

> <PUBCHEM_MONOISOTOPIC_WEIGHT>
430.061041

> <PUBCHEM_TOTAL_CHARGE>
0

> <PUBCHEM_HEAVY_ATOM_COUNT>
29

> <PUBCHEM_ATOM_DEF_STEREO_COUNT>
0

> <PUBCHEM_ATOM_UDEF_STEREO_COUNT>
1

> <PUBCHEM_BOND_DEF_STEREO_COUNT>
0

> <PUBCHEM_BOND_UDEF_STEREO_COUNT>
0

> <PUBCHEM_ISOTOPIC_ATOM_COUNT>
0

> <PUBCHEM_COMPONENT_COUNT>
1

> <PUBCHEM_CACTVS_TAUTO_COUNT>
2

> <PUBCHEM_COORDINATE_TYPE>
1
5
255

> <PUBCHEM_BONDANNOTATIONS>
16  18  8
16  19  8
17  20  8
17  23  8
18  21  8
19  22  8
20  24  8
21  25  8
22  25  8
23  27  8
24  26  8
26  27  8
12  6  3

> <DRUG_ID>
w206

> <DRUG_NAME>
Bicalutamide

$$$$
2466
  CDK     0927151942
null
 33 33  0  0  0  0  0  0  0  0999 V2000
    3.7320   -1.8100    0.0000 O   0  0  0  0  0  0  0  0  0  0  0  0
    5.4641    2.1900    0.0000 O   0  0  0  0  0  0  0  0  0  0  0  0
    5.4641    4.1900    0.0000 O   0  0  0  0  0  0  0  0  0  0  0  0
    4.5981    3.6900    0.0000 N   0  0  0  0  0  0  0  0  0  0  0  0
    2.8660   -3.3100    0.0000 C   0  0  0  0  0  0  0  0  0  0  0  0
    2.0000   -3.8100    0.0000 C   0  0  0  0  0  0  0  0  0  0  0  0
    2.8660   -2.3100    0.0000 C   0  0  0  0  0  0  0  0  0  0  0  0
    3.7320    1.1900    0.0000 C   0  0  0  0  0  0  0  0  0  0  0  0
    3.7320   -0.8100    0.0000 C   0  0  0  0  0  0  0  0  0  0  0  0
    2.0000   -4.8100    0.0000 C   0  0  0  0  0  0  0  0  0  0  0  0
    3.7320    2.1900    0.0000 C   0  0  0  0  0  0  0  0  0  0  0  0
    2.8660    0.6900    0.0000 C   0  0  0  0  0  0  0  0  0  0  0  0
    4.5981    0.6900    0.0000 C   0  0  0  0  0  0  0  0  0  0  0  0
    2.8660   -0.3100    0.0000 C   0  0  0  0  0  0  0  0  0  0  0  0
    4.5981   -0.3100    0.0000 C   0  0  0  0  0  0  0  0  0  0  0  0
    4.5981    2.6900    0.0000 C   0  0  0  0  0  0  0  0  0  0  0  0
    3.0781   -3.8926    0.0000 H   0  0  0  0  0  0  0  0  0  0  0  0
    3.4766   -3.2023    0.0000 H   0  0  0  0  0  0  0  0  0  0  0  0
    1.7880   -3.2274    0.0000 H   0  0  0  0  0  0  0  0  0  0  0  0
    1.3894   -3.9177    0.0000 H   0  0  0  0  0  0  0  0  0  0  0  0
    2.6540   -1.7274    0.0000 H   0  0  0  0  0  0  0  0  0  0  0  0
    2.2554   -2.4177    0.0000 H   0  0  0  0  0  0  0  0  0  0  0  0
    1.3800   -4.8100    0.0000 H   0  0  0  0  0  0  0  0  0  0  0  0
    2.0000   -5.4300    0.0000 H   0  0  0  0  0  0  0  0  0  0  0  0
    2.6200   -4.8100    0.0000 H   0  0  0  0  0  0  0  0  0  0  0  0
    3.5200    2.7726    0.0000 H   0  0  0  0  0  0  0  0  0  0  0  0
    3.1215    2.0823    0.0000 H   0  0  0  0  0  0  0  0  0  0  0  0
    2.3291    1.0000    0.0000 H   0  0  0  0  0  0  0  0  0  0  0  0
    5.1350    1.0000    0.0000 H   0  0  0  0  0  0  0  0  0  0  0  0
    2.3291   -0.6200    0.0000 H   0  0  0  0  0  0  0  0  0  0  0  0
    5.1350   -0.6200    0.0000 H   0  0  0  0  0  0  0  0  0  0  0  0
    4.0611    4.0000    0.0000 H   0  0  0  0  0  0  0  0  0  0  0  0
    5.4641    4.8100    0.0000 H   0  0  0  0  0  0  0  0  0  0  0  0
  1  7  1  0  0  0  0 
  1  9  1  0  0  0  0 
  2 16  2  0  0  0  0 
  3  4  1  0  0  0  0 
  3 33  1  0  0  0  0 
  4 16  1  0  0  0  0 
  4 32  1  0  0  0  0 
  5  6  1  0  0  0  0 
  5  7  1  0  0  0  0 
  5 17  1  0  0  0  0 
  5 18  1  0  0  0  0 
  6 10  1  0  0  0  0 
  6 19  1  0  0  0  0 
  6 20  1  0  0  0  0 
  7 21  1  0  0  0  0 
  7 22  1  0  0  0  0 
  8 11  1  0  0  0  0 
  8 12  2  0  0  0  0 
  8 13  1  0  0  0  0 
  9 14  2  0  0  0  0 
  9 15  1  0  0  0  0 
 10 23  1  0  0  0  0 
 10 24  1  0  0  0  0 
 10 25  1  0  0  0  0 
 11 16  1  0  0  0  0 
 11 26  1  0  0  0  0 
 11 27  1  0  0  0  0 
 12 14  1  0  0  0  0 
 12 28  1  0  0  0  0 
 13 15  2  0  0  0  0 
 13 29  1  0  0  0  0 
 14 30  1  0  0  0  0 
 15 31  1  0  0  0  0 
M  END
> <cdk:Title>
2466

> <cdk:Remark>
null

> <PUBCHEM_COMPOUND_CID>
2466

> <PUBCHEM_COMPOUND_CANONICALIZED>
1

> <PUBCHEM_CACTVS_COMPLEXITY>
200

> <PUBCHEM_CACTVS_HBOND_ACCEPTOR>
3

> <PUBCHEM_CACTVS_HBOND_DONOR>
2

> <PUBCHEM_CACTVS_ROTATABLE_BOND>
6

> <PUBCHEM_CACTVS_SUBSKEYS>
AAADceByMAAAAAAAAAAAAAAAAAAAAAAAAAAwAAAAAAAAAAABAAAAHgAUCAAADAShmAIyBoBQBACIAiFSEAACCAAgIAAoiAEGCIgMJjKEtRuCOCCk0BEIqAeYyICOIAAAAAAAAABAAAAAAAAAAAAAAAAAAA==

> <PUBCHEM_IUPAC_OPENEYE_NAME>
2-(4-butoxyphenyl)ethanehydroxamic acid

> <PUBCHEM_IUPAC_CAS_NAME>
2-(4-butoxyphenyl)-N-hydroxyacetamide

> <PUBCHEM_IUPAC_NAME>
2-(4-butoxyphenyl)-N-hydroxyacetamide

> <PUBCHEM_IUPAC_SYSTEMATIC_NAME>
2-(4-butoxyphenyl)-N-oxidanyl-ethanamide

> <PUBCHEM_IUPAC_TRADITIONAL_NAME>
2-(4-butoxyphenyl)ethanehydroxamic acid

> <PUBCHEM_IUPAC_INCHI>
InChI=1S/C12H17NO3/c1-2-3-8-16-11-6-4-10(5-7-11)9-12(14)13-15/h4-7,15H,2-3,8-9H2,1H3,(H,13,14)

> <PUBCHEM_IUPAC_INCHIKEY>
MXJWRABVEGLYDG-UHFFFAOYSA-N

> <PUBCHEM_XLOGP3_AA>
1.9

> <PUBCHEM_EXACT_MASS>
223.120843

> <PUBCHEM_MOLECULAR_FORMULA>
C12H17NO3

> <PUBCHEM_MOLECULAR_WEIGHT>
223.26828

> <PUBCHEM_OPENEYE_CAN_SMILES>
CCCCOC1=CC=C(C=C1)CC(=O)NO

> <PUBCHEM_OPENEYE_ISO_SMILES>
CCCCOC1=CC=C(C=C1)CC(=O)NO

> <PUBCHEM_CACTVS_TPSA>
58.6

> <PUBCHEM_MONOISOTOPIC_WEIGHT>
223.120843

> <PUBCHEM_TOTAL_CHARGE>
0

> <PUBCHEM_HEAVY_ATOM_COUNT>
16

> <PUBCHEM_ATOM_DEF_STEREO_COUNT>
0

> <PUBCHEM_ATOM_UDEF_STEREO_COUNT>
0

> <PUBCHEM_BOND_DEF_STEREO_COUNT>
0

> <PUBCHEM_BOND_UDEF_STEREO_COUNT>
0

> <PUBCHEM_ISOTOPIC_ATOM_COUNT>
0

> <PUBCHEM_COMPONENT_COUNT>
1

> <PUBCHEM_CACTVS_TAUTO_COUNT>
4

> <PUBCHEM_COORDINATE_TYPE>
1
5
255

> <PUBCHEM_BONDANNOTATIONS>
12  14  8
13  15  8
8  12  8
8  13  8
9  14  8
9  15  8

> <DRUG_ID>
w207

> <DRUG_NAME>
Bufexamac

$$$$
3715
  CDK     0927151942
null
 41 43  0  0  0  0  0  0  0  0999 V2000
   10.6350    2.9768    0.0000 Cl  0  0  0  0  0  0  0  0  0  0  0  0
    2.8660   -0.6033    0.0000 O   0  0  0  0  0  0  0  0  0  0  0  0
    6.0531    2.8962    0.0000 O   0  0  0  0  0  0  0  0  0  0  0  0
    6.3638   -3.0534    0.0000 O   0  0  0  0  0  0  0  0  0  0  0  0
    5.0746   -1.8967    0.0000 O   0  0  0  0  0  0  0  0  0  0  0  0
    6.4103    1.2014    0.0000 N   0  0  0  0  0  0  0  0  0  0  0  0
    6.4103   -0.4081    0.0000 C   0  0  0  0  0  0  0  0  0  0  0  0
    5.4641   -0.1033    0.0000 C   0  0  0  0  0  0  0  0  0  0  0  0
    5.4641    0.8967    0.0000 C   0  0  0  0  0  0  0  0  0  0  0  0
    6.9939    0.3967    0.0000 C   0  0  0  0  0  0  0  0  0  0  0  0
    6.7210   -1.3586    0.0000 C   0  0  0  0  0  0  0  0  0  0  0  0
    4.5981   -0.6033    0.0000 C   0  0  0  0  0  0  0  0  0  0  0  0
    4.5981    1.3967    0.0000 C   0  0  0  0  0  0  0  0  0  0  0  0
    7.9939    0.3967    0.0000 C   0  0  0  0  0  0  0  0  0  0  0  0
    6.7210    2.1519    0.0000 C   0  0  0  0  0  0  0  0  0  0  0  0
    3.7320   -0.1033    0.0000 C   0  0  0  0  0  0  0  0  0  0  0  0
    3.7320    0.8967    0.0000 C   0  0  0  0  0  0  0  0  0  0  0  0
    7.6995    2.3581    0.0000 C   0  0  0  0  0  0  0  0  0  0  0  0
    6.0531   -2.1029    0.0000 C   0  0  0  0  0  0  0  0  0  0  0  0
    8.3673    1.6138    0.0000 C   0  0  0  0  0  0  0  0  0  0  0  0
    8.0102    3.3087    0.0000 C   0  0  0  0  0  0  0  0  0  0  0  0
    9.3458    1.8200    0.0000 C   0  0  0  0  0  0  0  0  0  0  0  0
    8.9887    3.5149    0.0000 C   0  0  0  0  0  0  0  0  0  0  0  0
    9.6565    2.7706    0.0000 C   0  0  0  0  0  0  0  0  0  0  0  0
    2.0000   -0.1033    0.0000 C   0  0  0  0  0  0  0  0  0  0  0  0
    7.1035   -1.8465    0.0000 H   0  0  0  0  0  0  0  0  0  0  0  0
    7.2679   -1.0666    0.0000 H   0  0  0  0  0  0  0  0  0  0  0  0
    4.5981   -1.2233    0.0000 H   0  0  0  0  0  0  0  0  0  0  0  0
    4.5981    2.0167    0.0000 H   0  0  0  0  0  0  0  0  0  0  0  0
    7.9939   -0.2233    0.0000 H   0  0  0  0  0  0  0  0  0  0  0  0
    8.6139    0.3967    0.0000 H   0  0  0  0  0  0  0  0  0  0  0  0
    7.9939    1.0167    0.0000 H   0  0  0  0  0  0  0  0  0  0  0  0
    3.1951    1.2067    0.0000 H   0  0  0  0  0  0  0  0  0  0  0  0
    8.1747    1.0245    0.0000 H   0  0  0  0  0  0  0  0  0  0  0  0
    7.5961    3.7701    0.0000 H   0  0  0  0  0  0  0  0  0  0  0  0
    9.7599    1.3586    0.0000 H   0  0  0  0  0  0  0  0  0  0  0  0
    9.1813    4.1042    0.0000 H   0  0  0  0  0  0  0  0  0  0  0  0
    2.3100    0.4336    0.0000 H   0  0  0  0  0  0  0  0  0  0  0  0
    1.4631    0.2067    0.0000 H   0  0  0  0  0  0  0  0  0  0  0  0
    1.6900   -0.6403    0.0000 H   0  0  0  0  0  0  0  0  0  0  0  0
    5.9497   -3.5149    0.0000 H   0  0  0  0  0  0  0  0  0  0  0  0
  1 24  1  0  0  0  0 
  2 16  1  0  0  0  0 
  2 25  1  0  0  0  0 
  3 15  2  0  0  0  0 
  4 19  1  0  0  0  0 
  4 41  1  0  0  0  0 
  5 19  2  0  0  0  0 
  6  9  1  0  0  0  0 
  6 10  1  0  0  0  0 
  6 15  1  0  0  0  0 
  7  8  1  0  0  0  0 
  7 10  2  0  0  0  0 
  7 11  1  0  0  0  0 
  8  9  2  0  0  0  0 
  8 12  1  0  0  0  0 
  9 13  1  0  0  0  0 
 10 14  1  0  0  0  0 
 11 19  1  0  0  0  0 
 11 26  1  0  0  0  0 
 11 27  1  0  0  0  0 
 12 16  2  0  0  0  0 
 12 28  1  0  0  0  0 
 13 17  2  0  0  0  0 
 13 29  1  0  0  0  0 
 14 30  1  0  0  0  0 
 14 31  1  0  0  0  0 
 14 32  1  0  0  0  0 
 15 18  1  0  0  0  0 
 16 17  1  0  0  0  0 
 17 33  1  0  0  0  0 
 18 20  2  0  0  0  0 
 18 21  1  0  0  0  0 
 20 22  1  0  0  0  0 
 20 34  1  0  0  0  0 
 21 23  2  0  0  0  0 
 21 35  1  0  0  0  0 
 22 24  2  0  0  0  0 
 22 36  1  0  0  0  0 
 23 24  1  0  0  0  0 
 23 37  1  0  0  0  0 
 25 38  1  0  0  0  0 
 25 39  1  0  0  0  0 
 25 40  1  0  0  0  0 
M  END
> <cdk:Title>
3715

> <cdk:Remark>
null

> <PUBCHEM_COMPOUND_CID>
3715

> <PUBCHEM_COMPOUND_CANONICALIZED>
1

> <PUBCHEM_CACTVS_COMPLEXITY>
506

> <PUBCHEM_CACTVS_HBOND_ACCEPTOR>
4

> <PUBCHEM_CACTVS_HBOND_DONOR>
1

> <PUBCHEM_CACTVS_ROTATABLE_BOND>
4

> <PUBCHEM_CACTVS_SUBSKEYS>
AAADceB6OAAEAAAAAAAAAAAAAAAAAWAAAAAwYAAAAAAAAFgB9AAAHgIACAAADA6BniIyzvMMFgCoAyXyXACCiCAlJyAImCE2btgMJvLFt5uEcShkxBHI6Ye82fOehEABAAACAAAIgAIAAAQAAAAAAAAAAA==

> <PUBCHEM_IUPAC_OPENEYE_NAME>
2-[1-(4-chlorobenzoyl)-5-methoxy-2-methyl-indol-3-yl]acetic acid

> <PUBCHEM_IUPAC_CAS_NAME>
2-[1-[(4-chlorophenyl)-oxomethyl]-5-methoxy-2-methyl-3-indolyl]acetic acid

> <PUBCHEM_IUPAC_NAME>
2-[1-(4-chlorobenzoyl)-5-methoxy-2-methylindol-3-yl]acetic acid

> <PUBCHEM_IUPAC_SYSTEMATIC_NAME>
2-[1-(4-chlorophenyl)carbonyl-5-methoxy-2-methyl-indol-3-yl]ethanoic acid

> <PUBCHEM_IUPAC_TRADITIONAL_NAME>
2-[1-(4-chlorobenzoyl)-5-methoxy-2-methyl-indol-3-yl]acetic acid

> <PUBCHEM_IUPAC_INCHI>
InChI=1S/C19H16ClNO4/c1-11-15(10-18(22)23)16-9-14(25-2)7-8-17(16)21(11)19(24)12-3-5-13(20)6-4-12/h3-9H,10H2,1-2H3,(H,22,23)

> <PUBCHEM_IUPAC_INCHIKEY>
CGIGDMFJXJATDK-UHFFFAOYSA-N

> <PUBCHEM_XLOGP3>
4.3

> <PUBCHEM_EXACT_MASS>
357.076786

> <PUBCHEM_MOLECULAR_FORMULA>
C19H16ClNO4

> <PUBCHEM_MOLECULAR_WEIGHT>
357.78764

> <PUBCHEM_OPENEYE_CAN_SMILES>
CC1=C(C2=C(N1C(=O)C3=CC=C(C=C3)Cl)C=CC(=C2)OC)CC(=O)O

> <PUBCHEM_OPENEYE_ISO_SMILES>
CC1=C(C2=C(N1C(=O)C3=CC=C(C=C3)Cl)C=CC(=C2)OC)CC(=O)O

> <PUBCHEM_CACTVS_TPSA>
68.5

> <PUBCHEM_MONOISOTOPIC_WEIGHT>
357.076786

> <PUBCHEM_TOTAL_CHARGE>
0

> <PUBCHEM_HEAVY_ATOM_COUNT>
25

> <PUBCHEM_ATOM_DEF_STEREO_COUNT>
0

> <PUBCHEM_ATOM_UDEF_STEREO_COUNT>
0

> <PUBCHEM_BOND_DEF_STEREO_COUNT>
0

> <PUBCHEM_BOND_UDEF_STEREO_COUNT>
0

> <PUBCHEM_ISOTOPIC_ATOM_COUNT>
0

> <PUBCHEM_COMPONENT_COUNT>
1

> <PUBCHEM_CACTVS_TAUTO_COUNT>
5

> <PUBCHEM_COORDINATE_TYPE>
1
5
255

> <PUBCHEM_BONDANNOTATIONS>
12  16  8
13  17  8
16  17  8
18  20  8
18  21  8
20  22  8
21  23  8
22  24  8
23  24  8
6  10  8
6  9  8
7  10  8
7  8  8
8  12  8
8  9  8
9  13  8

> <DRUG_ID>
w208

> <DRUG_NAME>
Indomethacin

$$$$
2576
  CDK     0927151942
null
 42 41  0  0  0  0  0  0  0  0999 V2000
    7.7331   -0.5490    0.0000 O   0  0  0  0  0  0  0  0  0  0  0  0
    4.2690   -0.5490    0.0000 O   0  0  0  0  0  0  0  0  0  0  0  0
    8.5991    0.9510    0.0000 O   0  0  0  0  0  0  0  0  0  0  0  0
    3.4030   -2.0490    0.0000 O   0  0  0  0  0  0  0  0  0  0  0  0
    9.4651   -0.5490    0.0000 N   0  0  0  0  0  0  0  0  0  0  0  0
    2.5369   -0.5490    0.0000 N   0  0  0  0  0  0  0  0  0  0  0  0
    6.0010   -0.5490    0.0000 C   0  0  3  0  0  0  0  0  0  0  0  0
    5.5010    0.3170    0.0000 C   0  0  0  0  0  0  0  0  0  0  0  0
    6.8671   -0.0490    0.0000 C   0  0  0  0  0  0  0  0  0  0  0  0
    5.1350   -1.0490    0.0000 C   0  0  0  0  0  0  0  0  0  0  0  0
    6.5010   -1.4151    0.0000 C   0  0  0  0  0  0  0  0  0  0  0  0
    6.0010    1.1830    0.0000 C   0  0  0  0  0  0  0  0  0  0  0  0
    5.5010    2.0490    0.0000 C   0  0  0  0  0  0  0  0  0  0  0  0
    8.5991   -0.0490    0.0000 C   0  0  0  0  0  0  0  0  0  0  0  0
   10.3312   -0.0490    0.0000 C   0  0  0  0  0  0  0  0  0  0  0  0
    3.4030   -1.0490    0.0000 C   0  0  0  0  0  0  0  0  0  0  0  0
   11.1972   -0.5490    0.0000 C   0  0  0  0  0  0  0  0  0  0  0  0
   10.3312    0.9510    0.0000 C   0  0  0  0  0  0  0  0  0  0  0  0
    5.0261    0.7155    0.0000 H   0  0  0  0  0  0  0  0  0  0  0  0
    5.0261   -0.0815    0.0000 H   0  0  0  0  0  0  0  0  0  0  0  0
    7.2656    0.4259    0.0000 H   0  0  0  0  0  0  0  0  0  0  0  0
    6.4685    0.4259    0.0000 H   0  0  0  0  0  0  0  0  0  0  0  0
    4.7365   -1.5240    0.0000 H   0  0  0  0  0  0  0  0  0  0  0  0
    5.5335   -1.5240    0.0000 H   0  0  0  0  0  0  0  0  0  0  0  0
    5.9641   -1.7251    0.0000 H   0  0  0  0  0  0  0  0  0  0  0  0
    6.8110   -1.9520    0.0000 H   0  0  0  0  0  0  0  0  0  0  0  0
    7.0380   -1.1051    0.0000 H   0  0  0  0  0  0  0  0  0  0  0  0
    6.4760    0.7845    0.0000 H   0  0  0  0  0  0  0  0  0  0  0  0
    6.4760    1.5815    0.0000 H   0  0  0  0  0  0  0  0  0  0  0  0
    6.0380    2.3590    0.0000 H   0  0  0  0  0  0  0  0  0  0  0  0
    5.1910    2.5860    0.0000 H   0  0  0  0  0  0  0  0  0  0  0  0
    4.9641    1.7390    0.0000 H   0  0  0  0  0  0  0  0  0  0  0  0
    9.7942    0.2610    0.0000 H   0  0  0  0  0  0  0  0  0  0  0  0
    9.4651   -1.1690    0.0000 H   0  0  0  0  0  0  0  0  0  0  0  0
   10.9512    0.9510    0.0000 H   0  0  0  0  0  0  0  0  0  0  0  0
   10.3312    1.5710    0.0000 H   0  0  0  0  0  0  0  0  0  0  0  0
    9.7112    0.9510    0.0000 H   0  0  0  0  0  0  0  0  0  0  0  0
   10.8872   -1.0860    0.0000 H   0  0  0  0  0  0  0  0  0  0  0  0
   11.7341   -0.8590    0.0000 H   0  0  0  0  0  0  0  0  0  0  0  0
   11.5072   -0.0121    0.0000 H   0  0  0  0  0  0  0  0  0  0  0  0
    2.0000   -0.8590    0.0000 H   0  0  0  0  0  0  0  0  0  0  0  0
    2.5369    0.0710    0.0000 H   0  0  0  0  0  0  0  0  0  0  0  0
  1  9  1  0  0  0  0 
  1 14  1  0  0  0  0 
  2 10  1  0  0  0  0 
  2 16  1  0  0  0  0 
  3 14  2  0  0  0  0 
  4 16  2  0  0  0  0 
  5 14  1  0  0  0  0 
  5 15  1  0  0  0  0 
  5 34  1  0  0  0  0 
  6 16  1  0  0  0  0 
  6 41  1  0  0  0  0 
  6 42  1  0  0  0  0 
  7  8  1  0  0  0  0 
  7  9  1  0  0  0  0 
  7 10  1  0  0  0  0 
  7 11  1  0  0  0  0 
  8 12  1  0  0  0  0 
  8 19  1  0  0  0  0 
  8 20  1  0  0  0  0 
  9 21  1  0  0  0  0 
  9 22  1  0  0  0  0 
 10 23  1  0  0  0  0 
 10 24  1  0  0  0  0 
 11 25  1  0  0  0  0 
 11 26  1  0  0  0  0 
 11 27  1  0  0  0  0 
 12 13  1  0  0  0  0 
 12 28  1  0  0  0  0 
 12 29  1  0  0  0  0 
 13 30  1  0  0  0  0 
 13 31  1  0  0  0  0 
 13 32  1  0  0  0  0 
 15 17  1  0  0  0  0 
 15 18  1  0  0  0  0 
 15 33  1  0  0  0  0 
 17 38  1  0  0  0  0 
 17 39  1  0  0  0  0 
 17 40  1  0  0  0  0 
 18 35  1  0  0  0  0 
 18 36  1  0  0  0  0 
 18 37  1  0  0  0  0 
M  END
> <cdk:Title>
2576

> <cdk:Remark>
null

> <PUBCHEM_COMPOUND_CID>
2576

> <PUBCHEM_COMPOUND_CANONICALIZED>
1

> <PUBCHEM_CACTVS_COMPLEXITY>
281

> <PUBCHEM_CACTVS_HBOND_ACCEPTOR>
4

> <PUBCHEM_CACTVS_HBOND_DONOR>
2

> <PUBCHEM_CACTVS_ROTATABLE_BOND>
9

> <PUBCHEM_CACTVS_SUBSKEYS>
AAADceBzOAAAAAAAAAAAAAAAAAAAAAAAAAAAAAAAAAAAAAAAAAAAHgAQAAAADijhgAYCCALABAAIAAAAGAAAAAAAAAAAAIAIAAEAAAIAAAAIAAAFFgAAAACAAAANAAAAAAAAAAAAAAAAAAAAAAAAAAAAAA==

> <PUBCHEM_IUPAC_OPENEYE_NAME>
[2-(carbamoyloxymethyl)-2-methyl-pentyl] N-isopropylcarbamate

> <PUBCHEM_IUPAC_CAS_NAME>
N-propan-2-ylcarbamic acid [2-(carbamoyloxymethyl)-2-methylpentyl] ester

> <PUBCHEM_IUPAC_NAME>
[2-(carbamoyloxymethyl)-2-methylpentyl] N-propan-2-ylcarbamate

> <PUBCHEM_IUPAC_SYSTEMATIC_NAME>
[2-(aminocarbonyloxymethyl)-2-methyl-pentyl] N-propan-2-ylcarbamate

> <PUBCHEM_IUPAC_TRADITIONAL_NAME>
N-isopropylcarbamic acid [2-(carbamoyloxymethyl)-2-methyl-pentyl] ester

> <PUBCHEM_IUPAC_INCHI>
InChI=1S/C12H24N2O4/c1-5-6-12(4,7-17-10(13)15)8-18-11(16)14-9(2)3/h9H,5-8H2,1-4H3,(H2,13,15)(H,14,16)

> <PUBCHEM_IUPAC_INCHIKEY>
OFZCIYFFPZCNJE-UHFFFAOYSA-N

> <PUBCHEM_XLOGP3>
1.9

> <PUBCHEM_EXACT_MASS>
260.173607

> <PUBCHEM_MOLECULAR_FORMULA>
C12H24N2O4

> <PUBCHEM_MOLECULAR_WEIGHT>
260.32996

> <PUBCHEM_OPENEYE_CAN_SMILES>
CCCC(C)(COC(=O)N)COC(=O)NC(C)C

> <PUBCHEM_OPENEYE_ISO_SMILES>
CCCC(C)(COC(=O)N)COC(=O)NC(C)C

> <PUBCHEM_CACTVS_TPSA>
90.6

> <PUBCHEM_MONOISOTOPIC_WEIGHT>
260.173607

> <PUBCHEM_TOTAL_CHARGE>
0

> <PUBCHEM_HEAVY_ATOM_COUNT>
18

> <PUBCHEM_ATOM_DEF_STEREO_COUNT>
0

> <PUBCHEM_ATOM_UDEF_STEREO_COUNT>
1

> <PUBCHEM_BOND_DEF_STEREO_COUNT>
0

> <PUBCHEM_BOND_UDEF_STEREO_COUNT>
0

> <PUBCHEM_ISOTOPIC_ATOM_COUNT>
0

> <PUBCHEM_COMPONENT_COUNT>
1

> <PUBCHEM_CACTVS_TAUTO_COUNT>
4

> <PUBCHEM_COORDINATE_TYPE>
1
5
255

> <PUBCHEM_BONDANNOTATIONS>
7  11  3

> <DRUG_ID>
w209

> <DRUG_NAME>
Carisoprodol

$$$$
6436657
  CDK     0927151942
null
 38 38  0  0  0  0  0  0  0  0999 V2000
    3.7320    0.6900    0.0000 I   0  0  0  0  0  0  0  0  0  0  0  0
    5.4641   -2.3100    0.0000 I   0  0  0  0  0  0  0  0  0  0  0  0
    7.1962    0.6900    0.0000 I   0  0  0  0  0  0  0  0  0  0  0  0
    4.5981   -2.8100    0.0000 O   0  0  0  0  0  0  0  0  0  0  0  0
    7.1962    3.6900    0.0000 O   0  0  0  0  0  0  0  0  0  0  0  0
    5.4641    3.6900    0.0000 O   0  0  0  0  0  0  0  0  0  0  0  0
    3.7320   -1.3100    0.0000 N   0  0  0  0  0  0  0  0  0  0  0  0
    2.8660   -2.8100    0.0000 C   0  0  0  0  0  0  0  0  0  0  0  0
    4.5981   -0.8100    0.0000 C   0  0  0  0  0  0  0  0  0  0  0  0
    5.4641    0.6900    0.0000 C   0  0  0  0  0  0  0  0  0  0  0  0
    2.8660   -3.8100    0.0000 C   0  0  0  0  0  0  0  0  0  0  0  0
    4.5981    0.1900    0.0000 C   0  0  0  0  0  0  0  0  0  0  0  0
    3.7320   -2.3100    0.0000 C   0  0  0  0  0  0  0  0  0  0  0  0
    5.4641    1.6900    0.0000 C   0  0  0  0  0  0  0  0  0  0  0  0
    6.3301    2.1900    0.0000 C   0  0  0  0  0  0  0  0  0  0  0  0
    5.4641   -1.3100    0.0000 C   0  0  0  0  0  0  0  0  0  0  0  0
    6.3301    0.1900    0.0000 C   0  0  0  0  0  0  0  0  0  0  0  0
    7.1962    1.6900    0.0000 C   0  0  0  0  0  0  0  0  0  0  0  0
    6.3301   -0.8100    0.0000 C   0  0  0  0  0  0  0  0  0  0  0  0
    2.0000   -4.3100    0.0000 C   0  0  0  0  0  0  0  0  0  0  0  0
    8.0622    2.1900    0.0000 C   0  0  0  0  0  0  0  0  0  0  0  0
    6.3301    3.1900    0.0000 C   0  0  0  0  0  0  0  0  0  0  0  0
    2.6540   -2.2274    0.0000 H   0  0  0  0  0  0  0  0  0  0  0  0
    2.2554   -2.9177    0.0000 H   0  0  0  0  0  0  0  0  0  0  0  0
    3.0781   -4.3926    0.0000 H   0  0  0  0  0  0  0  0  0  0  0  0
    3.4766   -3.7023    0.0000 H   0  0  0  0  0  0  0  0  0  0  0  0
    3.1951   -1.0000    0.0000 H   0  0  0  0  0  0  0  0  0  0  0  0
    4.9272    2.0000    0.0000 H   0  0  0  0  0  0  0  0  0  0  0  0
    6.7976    1.2150    0.0000 H   0  0  0  0  0  0  0  0  0  0  0  0
    7.5947    1.2150    0.0000 H   0  0  0  0  0  0  0  0  0  0  0  0
    6.8671   -1.1200    0.0000 H   0  0  0  0  0  0  0  0  0  0  0  0
    1.6900   -3.7731    0.0000 H   0  0  0  0  0  0  0  0  0  0  0  0
    1.4631   -4.6200    0.0000 H   0  0  0  0  0  0  0  0  0  0  0  0
    2.3100   -4.8469    0.0000 H   0  0  0  0  0  0  0  0  0  0  0  0
    8.3722    1.6531    0.0000 H   0  0  0  0  0  0  0  0  0  0  0  0
    8.5991    2.5000    0.0000 H   0  0  0  0  0  0  0  0  0  0  0  0
    7.7522    2.7269    0.0000 H   0  0  0  0  0  0  0  0  0  0  0  0
    7.1962    4.3100    0.0000 H   0  0  0  0  0  0  0  0  0  0  0  0
  1 12  1  0  0  0  0 
  2 16  1  0  0  0  0 
  3 17  1  0  0  0  0 
  4 13  2  0  0  0  0 
  5 22  1  0  0  0  0 
  5 38  1  0  0  0  0 
  6 22  2  0  0  0  0 
  7  9  1  0  0  0  0 
  7 13  1  0  0  0  0 
  7 27  1  0  0  0  0 
  8 11  1  0  0  0  0 
  8 13  1  0  0  0  0 
  8 23  1  0  0  0  0 
  8 24  1  0  0  0  0 
  9 12  1  0  0  0  0 
  9 16  2  0  0  0  0 
 10 12  2  0  0  0  0 
 10 14  1  0  0  0  0 
 10 17  1  0  0  0  0 
 11 20  1  0  0  0  0 
 11 25  1  0  0  0  0 
 11 26  1  0  0  0  0 
 14 15  2  0  0  0  0 
 14 28  1  0  0  0  0 
 15 18  1  0  0  0  0 
 15 22  1  0  0  0  0 
 16 19  1  0  0  0  0 
 17 19  2  0  0  0  0 
 18 21  1  0  0  0  0 
 18 29  1  0  0  0  0 
 18 30  1  0  0  0  0 
 19 31  1  0  0  0  0 
 20 32  1  0  0  0  0 
 20 33  1  0  0  0  0 
 20 34  1  0  0  0  0 
 21 35  1  0  0  0  0 
 21 36  1  0  0  0  0 
 21 37  1  0  0  0  0 
M  END
> <cdk:Title>
6436657

> <cdk:Remark>
null

> <PUBCHEM_COMPOUND_CID>
6436657

> <PUBCHEM_COMPOUND_CANONICALIZED>
1

> <PUBCHEM_CACTVS_COMPLEXITY>
442

> <PUBCHEM_CACTVS_HBOND_ACCEPTOR>
3

> <PUBCHEM_CACTVS_HBOND_DONOR>
2

> <PUBCHEM_CACTVS_ROTATABLE_BOND>
6

> <PUBCHEM_CACTVS_SUBSKEYS>
AAADceByMAAAAwAAAAAAAAAAAAAAAAAAAAAwAAAAAAAAAAABAAAAHgAwCAAADAiDmAAyyILAAgCIAiXSWACCAAAhAAAAiAEARMgIJDLAkZGEcAhklADI2YcQgAAOAAAAQAAAAAAAAACAAAAAAAAAAAAAAA==

> <PUBCHEM_IUPAC_OPENEYE_NAME>
(2E)-2-[[3-(butanoylamino)-2,4,6-triiodo-phenyl]methylene]butanoic acid

> <PUBCHEM_IUPAC_CAS_NAME>
(2E)-2-[[2,4,6-triiodo-3-(1-oxobutylamino)phenyl]methylidene]butanoic acid

> <PUBCHEM_IUPAC_NAME>
(2E)-2-[[3-(butanoylamino)-2,4,6-triiodophenyl]methylidene]butanoic acid

> <PUBCHEM_IUPAC_SYSTEMATIC_NAME>
(2E)-2-[[3-(butanoylamino)-2,4,6-tris(iodanyl)phenyl]methylidene]butanoic acid

> <PUBCHEM_IUPAC_TRADITIONAL_NAME>
(E)-3-(3-butyramido-2,4,6-triiodo-phenyl)-2-ethyl-acrylic acid

> <PUBCHEM_IUPAC_INCHI>
InChI=1S/C15H16I3NO3/c1-3-5-12(20)19-14-11(17)7-10(16)9(13(14)18)6-8(4-2)15(21)22/h6-7H,3-5H2,1-2H3,(H,19,20)(H,21,22)/b8-6+

> <PUBCHEM_IUPAC_INCHIKEY>
CWRBDUIQDIHWJZ-SOFGYWHQSA-N

> <PUBCHEM_XLOGP3_AA>
4.6

> <PUBCHEM_EXACT_MASS>
638.826437

> <PUBCHEM_MOLECULAR_FORMULA>
C15H16I3NO3

> <PUBCHEM_MOLECULAR_WEIGHT>
639.00585

> <PUBCHEM_OPENEYE_CAN_SMILES>
CCCC(=O)NC1=C(C=C(C(=C1I)C=C(CC)C(=O)O)I)I

> <PUBCHEM_OPENEYE_ISO_SMILES>
CCCC(=O)NC1=C(C=C(C(=C1I)/C=C(\CC)/C(=O)O)I)I

> <PUBCHEM_CACTVS_TPSA>
66.4

> <PUBCHEM_MONOISOTOPIC_WEIGHT>
638.826437

> <PUBCHEM_TOTAL_CHARGE>
0

> <PUBCHEM_HEAVY_ATOM_COUNT>
22

> <PUBCHEM_ATOM_DEF_STEREO_COUNT>
0

> <PUBCHEM_ATOM_UDEF_STEREO_COUNT>
0

> <PUBCHEM_BOND_DEF_STEREO_COUNT>
1

> <PUBCHEM_BOND_UDEF_STEREO_COUNT>
0

> <PUBCHEM_ISOTOPIC_ATOM_COUNT>
0

> <PUBCHEM_COMPONENT_COUNT>
1

> <PUBCHEM_CACTVS_TAUTO_COUNT>
3

> <PUBCHEM_COORDINATE_TYPE>
1
5
255

> <PUBCHEM_BONDANNOTATIONS>
10  12  8
10  17  8
16  19  8
17  19  8
9  12  8
9  16  8

> <DRUG_ID>
w21

> <DRUG_NAME>
Bunamiodyl

$$$$
25803
  CDK     0927151942
null
 56 57  0  0  0  0  0  0  0  0999 V2000
    4.2690    2.4510    0.0000 O   0  0  0  0  0  0  0  0  0  0  0  0
    3.4030   -1.0490    0.0000 O   0  0  0  0  0  0  0  0  0  0  0  0
    7.7331    2.4510    0.0000 O   0  0  0  0  0  0  0  0  0  0  0  0
    5.1350   -2.0490    0.0000 O   0  0  0  0  0  0  0  0  0  0  0  0
    6.0010   -0.5490    0.0000 O   0  0  0  0  0  0  0  0  0  0  0  0
    4.2690   -2.5490    0.0000 O   0  0  0  0  0  0  0  0  0  0  0  0
    5.1350    0.9510    0.0000 N   0  0  0  0  0  0  0  0  0  0  0  0
    6.8671    0.9510    0.0000 N   0  0  0  0  0  0  0  0  0  0  0  0
    2.5369   -2.5490    0.0000 N   0  0  0  0  0  0  0  0  0  0  0  0
    6.0010    2.4510    0.0000 C   0  0  3  0  0  0  0  0  0  0  0  0
    5.5010    3.3170    0.0000 C   0  0  0  0  0  0  0  0  0  0  0  0
    5.1350    1.9510    0.0000 C   0  0  0  0  0  0  0  0  0  0  0  0
    6.5010    3.3170    0.0000 C   0  0  0  0  0  0  0  0  0  0  0  0
    6.8671    1.9510    0.0000 C   0  0  0  0  0  0  0  0  0  0  0  0
    4.2690    0.4510    0.0000 C   0  0  0  0  0  0  0  0  0  0  0  0
    4.2690   -0.5490    0.0000 C   0  0  3  0  0  0  0  0  0  0  0  0
    6.0010    0.4510    0.0000 C   0  0  0  0  0  0  0  0  0  0  0  0
    4.5010    3.3170    0.0000 C   0  0  0  0  0  0  0  0  0  0  0  0
    7.5010    3.3170    0.0000 C   0  0  0  0  0  0  0  0  0  0  0  0
    6.0010    4.1830    0.0000 C   0  0  0  0  0  0  0  0  0  0  0  0
    5.1350   -1.0490    0.0000 C   0  0  0  0  0  0  0  0  0  0  0  0
    8.0010    4.1830    0.0000 C   0  0  0  0  0  0  0  0  0  0  0  0
    6.5010    5.0490    0.0000 C   0  0  0  0  0  0  0  0  0  0  0  0
    7.5010    5.0490    0.0000 C   0  0  0  0  0  0  0  0  0  0  0  0
    6.0010   -2.5490    0.0000 C   0  0  0  0  0  0  0  0  0  0  0  0
    6.0010   -3.5490    0.0000 C   0  0  0  0  0  0  0  0  0  0  0  0
    6.8671   -4.0490    0.0000 C   0  0  0  0  0  0  0  0  0  0  0  0
    3.4030   -2.0490    0.0000 C   0  0  0  0  0  0  0  0  0  0  0  0
    6.8671   -5.0490    0.0000 C   0  0  0  0  0  0  0  0  0  0  0  0
    6.0836    3.5290    0.0000 H   0  0  0  0  0  0  0  0  0  0  0  0
    5.3934    3.9276    0.0000 H   0  0  0  0  0  0  0  0  0  0  0  0
    4.0569    1.0336    0.0000 H   0  0  0  0  0  0  0  0  0  0  0  0
    3.6584    0.3433    0.0000 H   0  0  0  0  0  0  0  0  0  0  0  0
    4.2690   -1.3990    0.0000 H   0  0  0  0  0  0  0  0  0  0  0  0
    7.4040    0.6410    0.0000 H   0  0  0  0  0  0  0  0  0  0  0  0
    4.5010    3.9370    0.0000 H   0  0  0  0  0  0  0  0  0  0  0  0
    3.8810    3.3170    0.0000 H   0  0  0  0  0  0  0  0  0  0  0  0
    4.5010    2.6970    0.0000 H   0  0  0  0  0  0  0  0  0  0  0  0
    5.7456   -1.1567    0.0000 H   0  0  0  0  0  0  0  0  0  0  0  0
    5.3471   -0.4664    0.0000 H   0  0  0  0  0  0  0  0  0  0  0  0
    7.8110    2.7800    0.0000 H   0  0  0  0  0  0  0  0  0  0  0  0
    5.3810    4.1830    0.0000 H   0  0  0  0  0  0  0  0  0  0  0  0
    8.6210    4.1830    0.0000 H   0  0  0  0  0  0  0  0  0  0  0  0
    6.1910    5.5860    0.0000 H   0  0  0  0  0  0  0  0  0  0  0  0
    6.6116   -2.6567    0.0000 H   0  0  0  0  0  0  0  0  0  0  0  0
    6.2131   -1.9664    0.0000 H   0  0  0  0  0  0  0  0  0  0  0  0
    7.8110    5.5860    0.0000 H   0  0  0  0  0  0  0  0  0  0  0  0
    5.3905   -3.4414    0.0000 H   0  0  0  0  0  0  0  0  0  0  0  0
    5.7890   -4.1316    0.0000 H   0  0  0  0  0  0  0  0  0  0  0  0
    7.4776   -4.1567    0.0000 H   0  0  0  0  0  0  0  0  0  0  0  0
    7.0791   -3.4664    0.0000 H   0  0  0  0  0  0  0  0  0  0  0  0
    6.2471   -5.0490    0.0000 H   0  0  0  0  0  0  0  0  0  0  0  0
    6.8671   -5.6690    0.0000 H   0  0  0  0  0  0  0  0  0  0  0  0
    7.4871   -5.0490    0.0000 H   0  0  0  0  0  0  0  0  0  0  0  0
    2.5369   -3.1690    0.0000 H   0  0  0  0  0  0  0  0  0  0  0  0
    2.0000   -2.2390    0.0000 H   0  0  0  0  0  0  0  0  0  0  0  0
  1 12  2  0  0  0  0 
  2 16  1  0  0  0  0 
  2 28  1  0  0  0  0 
  3 14  2  0  0  0  0 
  4 21  1  0  0  0  0 
  4 25  1  0  0  0  0 
  5 17  2  0  0  0  0 
  6 28  2  0  0  0  0 
  7 12  1  0  0  0  0 
  7 15  1  0  0  0  0 
  7 17  1  0  0  0  0 
  8 14  1  0  0  0  0 
  8 17  1  0  0  0  0 
  8 35  1  0  0  0  0 
  9 28  1  0  0  0  0 
  9 55  1  0  0  0  0 
  9 56  1  0  0  0  0 
 10 11  1  0  0  0  0 
 10 12  1  0  0  0  0 
 10 13  1  0  0  0  0 
 10 14  1  0  0  0  0 
 11 18  1  0  0  0  0 
 11 30  1  0  0  0  0 
 11 31  1  0  0  0  0 
 13 19  2  0  0  0  0 
 13 20  1  0  0  0  0 
 15 16  1  0  0  0  0 
 15 32  1  0  0  0  0 
 15 33  1  0  0  0  0 
 16 21  1  0  0  0  0 
 16 34  1  0  0  0  0 
 18 36  1  0  0  0  0 
 18 37  1  0  0  0  0 
 18 38  1  0  0  0  0 
 19 22  1  0  0  0  0 
 19 41  1  0  0  0  0 
 20 23  2  0  0  0  0 
 20 42  1  0  0  0  0 
 21 39  1  0  0  0  0 
 21 40  1  0  0  0  0 
 22 24  2  0  0  0  0 
 22 43  1  0  0  0  0 
 23 24  1  0  0  0  0 
 23 44  1  0  0  0  0 
 24 47  1  0  0  0  0 
 25 26  1  0  0  0  0 
 25 45  1  0  0  0  0 
 25 46  1  0  0  0  0 
 26 27  1  0  0  0  0 
 26 48  1  0  0  0  0 
 26 49  1  0  0  0  0 
 27 29  1  0  0  0  0 
 27 50  1  0  0  0  0 
 27 51  1  0  0  0  0 
 29 52  1  0  0  0  0 
 29 53  1  0  0  0  0 
 29 54  1  0  0  0  0 
M  END
> <cdk:Title>
25803

> <cdk:Remark>
null

> <PUBCHEM_COMPOUND_CID>
25803

> <PUBCHEM_COMPOUND_CANONICALIZED>
1

> <PUBCHEM_CACTVS_COMPLEXITY>
619

> <PUBCHEM_CACTVS_HBOND_ACCEPTOR>
6

> <PUBCHEM_CACTVS_HBOND_DONOR>
2

> <PUBCHEM_CACTVS_ROTATABLE_BOND>
11

> <PUBCHEM_CACTVS_SUBSKEYS>
AAADceB7OAAAAAAAAAAAAAAAAAAAAAAAAAA8QAAAAAAAAAABAAAAHgAQAAAADhThmAYzCIPABACIAiFSGAACAAAgAAAIiAEIAImLIDqI1RGPIAAuhyKaiAcYiMCPgAAAAAAAAAAAAAAAAAAAAAAAAAAAAA==

> <PUBCHEM_IUPAC_OPENEYE_NAME>
[1-(butoxymethyl)-2-(5-ethyl-2,4,6-trioxo-5-phenyl-hexahydropyrimidin-1-yl)ethyl] carbamate

> <PUBCHEM_IUPAC_CAS_NAME>
carbamic acid [1-butoxy-3-(5-ethyl-2,4,6-trioxo-5-phenyl-1,3-diazinan-1-yl)propan-2-yl] ester

> <PUBCHEM_IUPAC_NAME>
[1-butoxy-3-(5-ethyl-2,4,6-trioxo-5-phenyl-1,3-diazinan-1-yl)propan-2-yl] carbamate

> <PUBCHEM_IUPAC_SYSTEMATIC_NAME>
[1-butoxy-3-[5-ethyl-2,4,6-tris(oxidanylidene)-5-phenyl-1,3-diazinan-1-yl]propan-2-yl] carbamate

> <PUBCHEM_IUPAC_TRADITIONAL_NAME>
carbamic acid [1-(butoxymethyl)-2-(5-ethyl-2,4,6-triketo-5-phenyl-hexahydropyrimidin-1-yl)ethyl] ester

> <PUBCHEM_IUPAC_INCHI>
InChI=1S/C20H27N3O6/c1-3-5-11-28-13-15(29-18(21)26)12-23-17(25)20(4-2,16(24)22-19(23)27)14-9-7-6-8-10-14/h6-10,15H,3-5,11-13H2,1-2H3,(H2,21,26)(H,22,24,27)

> <PUBCHEM_IUPAC_INCHIKEY>
QHZQILHUJDRDAI-UHFFFAOYSA-N

> <PUBCHEM_XLOGP3>
2.3

> <PUBCHEM_EXACT_MASS>
405.189986

> <PUBCHEM_MOLECULAR_FORMULA>
C20H27N3O6

> <PUBCHEM_MOLECULAR_WEIGHT>
405.44488

> <PUBCHEM_OPENEYE_CAN_SMILES>
CCCCOCC(CN1C(=O)C(C(=O)NC1=O)(CC)C2=CC=CC=C2)OC(=O)N

> <PUBCHEM_OPENEYE_ISO_SMILES>
CCCCOCC(CN1C(=O)C(C(=O)NC1=O)(CC)C2=CC=CC=C2)OC(=O)N

> <PUBCHEM_CACTVS_TPSA>
128

> <PUBCHEM_MONOISOTOPIC_WEIGHT>
405.189986

> <PUBCHEM_TOTAL_CHARGE>
0

> <PUBCHEM_HEAVY_ATOM_COUNT>
29

> <PUBCHEM_ATOM_DEF_STEREO_COUNT>
0

> <PUBCHEM_ATOM_UDEF_STEREO_COUNT>
2

> <PUBCHEM_BOND_DEF_STEREO_COUNT>
0

> <PUBCHEM_BOND_UDEF_STEREO_COUNT>
0

> <PUBCHEM_ISOTOPIC_ATOM_COUNT>
0

> <PUBCHEM_COMPONENT_COUNT>
1

> <PUBCHEM_CACTVS_TAUTO_COUNT>
6

> <PUBCHEM_COORDINATE_TYPE>
1
5
255

> <PUBCHEM_BONDANNOTATIONS>
10  11  3
13  19  8
13  20  8
16  34  3
19  22  8
20  23  8
22  24  8
23  24  8

> <DRUG_ID>
w210

> <DRUG_NAME>
Febarbamate

$$$$
2333
  CDK     0927151942
null
 34 36  0  0  0  0  0  0  0  0999 V2000
    7.5673    2.5344    0.0000 Br  0  0  0  0  0  0  0  0  0  0  0  0
    8.2816   -0.8553    0.0000 Br  0  0  0  0  0  0  0  0  0  0  0  0
    4.6783   -2.3391    0.0000 O   0  0  0  0  0  0  0  0  0  0  0  0
    4.3211    0.9652    0.0000 O   0  0  0  0  0  0  0  0  0  0  0  0
    8.9030    1.0458    0.0000 O   0  0  0  0  0  0  0  0  0  0  0  0
    4.6783   -0.7296    0.0000 C   0  0  0  0  0  0  0  0  0  0  0  0
    3.7320   -1.0344    0.0000 C   0  0  0  0  0  0  0  0  0  0  0  0
    5.2619   -1.5344    0.0000 C   0  0  0  0  0  0  0  0  0  0  0  0
    3.7320   -2.0344    0.0000 C   0  0  0  0  0  0  0  0  0  0  0  0
    6.2619   -1.5344    0.0000 C   0  0  0  0  0  0  0  0  0  0  0  0
    4.9889    0.2209    0.0000 C   0  0  0  0  0  0  0  0  0  0  0  0
    2.8660   -0.5344    0.0000 C   0  0  0  0  0  0  0  0  0  0  0  0
    5.9674    0.4271    0.0000 C   0  0  0  0  0  0  0  0  0  0  0  0
    2.8660   -2.5344    0.0000 C   0  0  0  0  0  0  0  0  0  0  0  0
    6.7619   -2.4004    0.0000 C   0  0  0  0  0  0  0  0  0  0  0  0
    2.0000   -1.0344    0.0000 C   0  0  0  0  0  0  0  0  0  0  0  0
    2.0000   -2.0344    0.0000 C   0  0  0  0  0  0  0  0  0  0  0  0
    6.6353   -0.3172    0.0000 C   0  0  0  0  0  0  0  0  0  0  0  0
    6.2781    1.3776    0.0000 C   0  0  0  0  0  0  0  0  0  0  0  0
    7.2566    1.5838    0.0000 C   0  0  0  0  0  0  0  0  0  0  0  0
    7.6138   -0.1110    0.0000 C   0  0  0  0  0  0  0  0  0  0  0  0
    7.9244    0.8395    0.0000 C   0  0  0  0  0  0  0  0  0  0  0  0
    6.8445   -1.3223    0.0000 H   0  0  0  0  0  0  0  0  0  0  0  0
    6.1542   -0.9238    0.0000 H   0  0  0  0  0  0  0  0  0  0  0  0
    2.8660    0.0856    0.0000 H   0  0  0  0  0  0  0  0  0  0  0  0
    2.8660   -3.1544    0.0000 H   0  0  0  0  0  0  0  0  0  0  0  0
    6.2249   -2.7104    0.0000 H   0  0  0  0  0  0  0  0  0  0  0  0
    7.0719   -2.9373    0.0000 H   0  0  0  0  0  0  0  0  0  0  0  0
    7.2988   -2.0904    0.0000 H   0  0  0  0  0  0  0  0  0  0  0  0
    1.4631   -0.7244    0.0000 H   0  0  0  0  0  0  0  0  0  0  0  0
    1.4631   -2.3444    0.0000 H   0  0  0  0  0  0  0  0  0  0  0  0
    6.4427   -0.9065    0.0000 H   0  0  0  0  0  0  0  0  0  0  0  0
    5.8640    1.8391    0.0000 H   0  0  0  0  0  0  0  0  0  0  0  0
    9.0956    1.6351    0.0000 H   0  0  0  0  0  0  0  0  0  0  0  0
  1 20  1  0  0  0  0 
  2 21  1  0  0  0  0 
  3  8  1  0  0  0  0 
  3  9  1  0  0  0  0 
  4 11  2  0  0  0  0 
  5 22  1  0  0  0  0 
  5 34  1  0  0  0  0 
  6  7  1  0  0  0  0 
  6  8  2  0  0  0  0 
  6 11  1  0  0  0  0 
  7  9  1  0  0  0  0 
  7 12  2  0  0  0  0 
  8 10  1  0  0  0  0 
  9 14  2  0  0  0  0 
 10 15  1  0  0  0  0 
 10 23  1  0  0  0  0 
 10 24  1  0  0  0  0 
 11 13  1  0  0  0  0 
 12 16  1  0  0  0  0 
 12 25  1  0  0  0  0 
 13 18  2  0  0  0  0 
 13 19  1  0  0  0  0 
 14 17  1  0  0  0  0 
 14 26  1  0  0  0  0 
 15 27  1  0  0  0  0 
 15 28  1  0  0  0  0 
 15 29  1  0  0  0  0 
 16 17  2  0  0  0  0 
 16 30  1  0  0  0  0 
 17 31  1  0  0  0  0 
 18 21  1  0  0  0  0 
 18 32  1  0  0  0  0 
 19 20  2  0  0  0  0 
 19 33  1  0  0  0  0 
 20 22  1  0  0  0  0 
 21 22  2  0  0  0  0 
M  END
> <cdk:Title>
2333

> <cdk:Remark>
null

> <PUBCHEM_COMPOUND_CID>
2333

> <PUBCHEM_COMPOUND_CANONICALIZED>
1

> <PUBCHEM_CACTVS_COMPLEXITY>
405

> <PUBCHEM_CACTVS_HBOND_ACCEPTOR>
3

> <PUBCHEM_CACTVS_HBOND_DONOR>
1

> <PUBCHEM_CACTVS_ROTATABLE_BOND>
3

> <PUBCHEM_CACTVS_SUBSKEYS>
AAADccB4MAAAGAAAAAAAAAAAAAAAASAAAAAwYAAAAAAAAEgB9AAAGgBACAABrASAmAAyBsAABkCIAqBSAAACCAAkIAQIiAEGCOgMJjaONRqCeWCk4BEIu5eLzPDOoAAAEAAoBABAAAAgAFAIAAAAAAAAAA==

> <PUBCHEM_IUPAC_OPENEYE_NAME>
(3,5-dibromo-4-hydroxy-phenyl)-(2-ethylbenzofuran-3-yl)methanone

> <PUBCHEM_IUPAC_CAS_NAME>
(3,5-dibromo-4-hydroxyphenyl)-(2-ethyl-3-benzofuranyl)methanone

> <PUBCHEM_IUPAC_NAME>
(3,5-dibromo-4-hydroxyphenyl)-(2-ethyl-1-benzofuran-3-yl)methanone

> <PUBCHEM_IUPAC_SYSTEMATIC_NAME>
[3,5-bis(bromanyl)-4-oxidanyl-phenyl]-(2-ethyl-1-benzofuran-3-yl)methanone

> <PUBCHEM_IUPAC_TRADITIONAL_NAME>
(3,5-dibromo-4-hydroxy-phenyl)-(2-ethylbenzofuran-3-yl)methanone

> <PUBCHEM_IUPAC_INCHI>
InChI=1S/C17H12Br2O3/c1-2-13-15(10-5-3-4-6-14(10)22-13)16(20)9-7-11(18)17(21)12(19)8-9/h3-8,21H,2H2,1H3

> <PUBCHEM_IUPAC_INCHIKEY>
WHQCHUCQKNIQEC-UHFFFAOYSA-N

> <PUBCHEM_XLOGP3>
5.7

> <PUBCHEM_EXACT_MASS>
423.913272

> <PUBCHEM_MOLECULAR_FORMULA>
C17H12Br2O3

> <PUBCHEM_MOLECULAR_WEIGHT>
424.08338

> <PUBCHEM_OPENEYE_CAN_SMILES>
CCC1=C(C2=CC=CC=C2O1)C(=O)C3=CC(=C(C(=C3)Br)O)Br

> <PUBCHEM_OPENEYE_ISO_SMILES>
CCC1=C(C2=CC=CC=C2O1)C(=O)C3=CC(=C(C(=C3)Br)O)Br

> <PUBCHEM_CACTVS_TPSA>
50.4

> <PUBCHEM_MONOISOTOPIC_WEIGHT>
421.915318

> <PUBCHEM_TOTAL_CHARGE>
0

> <PUBCHEM_HEAVY_ATOM_COUNT>
22

> <PUBCHEM_ATOM_DEF_STEREO_COUNT>
0

> <PUBCHEM_ATOM_UDEF_STEREO_COUNT>
0

> <PUBCHEM_BOND_DEF_STEREO_COUNT>
0

> <PUBCHEM_BOND_UDEF_STEREO_COUNT>
0

> <PUBCHEM_ISOTOPIC_ATOM_COUNT>
0

> <PUBCHEM_COMPONENT_COUNT>
1

> <PUBCHEM_CACTVS_TAUTO_COUNT>
4

> <PUBCHEM_COORDINATE_TYPE>
1
5
255

> <PUBCHEM_BONDANNOTATIONS>
12  16  8
13  18  8
13  19  8
14  17  8
16  17  8
18  21  8
19  20  8
20  22  8
21  22  8
3  8  8
3  9  8
6  7  8
6  8  8
7  12  8
7  9  8
9  14  8

> <DRUG_ID>
w211

> <DRUG_NAME>
Benzbromarone

$$$$
8593
  CDK     0927151942
null
 30 32  0  0  0  0  0  0  0  0999 V2000
    4.5981   -2.1900    0.0000 O   0  0  0  0  0  0  0  0  0  0  0  0
    6.3301   -2.1900    0.0000 O   0  0  0  0  0  0  0  0  0  0  0  0
    5.4641    1.3100    0.0000 N   0  0  0  0  0  0  0  0  0  0  0  0
    6.3301   -0.1900    0.0000 C   0  0  0  0  0  0  0  0  0  0  0  0
    6.3301    0.8100    0.0000 C   0  0  0  0  0  0  0  0  0  0  0  0
    4.5981    0.8100    0.0000 C   0  0  0  0  0  0  0  0  0  0  0  0
    5.4641   -0.6900    0.0000 C   0  0  0  0  0  0  0  0  0  0  0  0
    4.5981   -0.1900    0.0000 C   0  0  0  0  0  0  0  0  0  0  0  0
    3.7320    1.3100    0.0000 C   0  0  0  0  0  0  0  0  0  0  0  0
    7.2241   -0.7247    0.0000 C   0  0  0  0  0  0  0  0  0  0  0  0
    7.2241    1.3447    0.0000 C   0  0  0  0  0  0  0  0  0  0  0  0
    8.1301   -0.2108    0.0000 C   0  0  0  0  0  0  0  0  0  0  0  0
    8.1301    0.8308    0.0000 C   0  0  0  0  0  0  0  0  0  0  0  0
    2.8660    0.8100    0.0000 C   0  0  0  0  0  0  0  0  0  0  0  0
    3.7320    2.3100    0.0000 C   0  0  0  0  0  0  0  0  0  0  0  0
    5.4641   -1.6900    0.0000 C   0  0  0  0  0  0  0  0  0  0  0  0
    2.0000    1.3100    0.0000 C   0  0  0  0  0  0  0  0  0  0  0  0
    2.8660    2.8100    0.0000 C   0  0  0  0  0  0  0  0  0  0  0  0
    2.0000    2.3100    0.0000 C   0  0  0  0  0  0  0  0  0  0  0  0
    4.0611   -0.5000    0.0000 H   0  0  0  0  0  0  0  0  0  0  0  0
    7.2169   -1.3446    0.0000 H   0  0  0  0  0  0  0  0  0  0  0  0
    7.2169    1.9646    0.0000 H   0  0  0  0  0  0  0  0  0  0  0  0
    8.6659   -0.5229    0.0000 H   0  0  0  0  0  0  0  0  0  0  0  0
    8.6659    1.1429    0.0000 H   0  0  0  0  0  0  0  0  0  0  0  0
    2.8660    0.1900    0.0000 H   0  0  0  0  0  0  0  0  0  0  0  0
    4.2690    2.6200    0.0000 H   0  0  0  0  0  0  0  0  0  0  0  0
    1.4631    1.0000    0.0000 H   0  0  0  0  0  0  0  0  0  0  0  0
    2.8660    3.4300    0.0000 H   0  0  0  0  0  0  0  0  0  0  0  0
    1.4631    2.6200    0.0000 H   0  0  0  0  0  0  0  0  0  0  0  0
    4.5981   -2.8100    0.0000 H   0  0  0  0  0  0  0  0  0  0  0  0
  1 16  1  0  0  0  0 
  1 30  1  0  0  0  0 
  2 16  2  0  0  0  0 
  3  5  1  0  0  0  0 
  3  6  2  0  0  0  0 
  4  5  1  0  0  0  0 
  4  7  1  0  0  0  0 
  4 10  2  0  0  0  0 
  5 11  2  0  0  0  0 
  6  8  1  0  0  0  0 
  6  9  1  0  0  0  0 
  7  8  2  0  0  0  0 
  7 16  1  0  0  0  0 
  8 20  1  0  0  0  0 
  9 14  2  0  0  0  0 
  9 15  1  0  0  0  0 
 10 12  1  0  0  0  0 
 10 21  1  0  0  0  0 
 11 13  1  0  0  0  0 
 11 22  1  0  0  0  0 
 12 13  2  0  0  0  0 
 12 23  1  0  0  0  0 
 13 24  1  0  0  0  0 
 14 17  1  0  0  0  0 
 14 25  1  0  0  0  0 
 15 18  2  0  0  0  0 
 15 26  1  0  0  0  0 
 17 19  2  0  0  0  0 
 17 27  1  0  0  0  0 
 18 19  1  0  0  0  0 
 18 28  1  0  0  0  0 
 19 29  1  0  0  0  0 
M  END
> <cdk:Title>
8593

> <cdk:Remark>
null

> <PUBCHEM_COMPOUND_CID>
8593

> <PUBCHEM_COMPOUND_CANONICALIZED>
1

> <PUBCHEM_CACTVS_COMPLEXITY>
325

> <PUBCHEM_CACTVS_HBOND_ACCEPTOR>
3

> <PUBCHEM_CACTVS_HBOND_DONOR>
1

> <PUBCHEM_CACTVS_ROTATABLE_BOND>
2

> <PUBCHEM_CACTVS_SUBSKEYS>
AAADccB6MAAAAAAAAAAAAAAAAAAAAAAAAAA8YIAAAAAAAACx9AAAHgAACAAADAiBngAwyPIIEgCoAyTyTACCgCAlAiAImCEwbNgIJvLAlZGEcQhkwAHI2Ye8yPCOgAAAAAACAAAAAAAAAAQAAAAAAAAAAA==

> <PUBCHEM_IUPAC_OPENEYE_NAME>
2-phenylquinoline-4-carboxylic acid

> <PUBCHEM_IUPAC_CAS_NAME>
2-phenyl-4-quinolinecarboxylic acid

> <PUBCHEM_IUPAC_NAME>
2-phenylquinoline-4-carboxylic acid

> <PUBCHEM_IUPAC_SYSTEMATIC_NAME>
2-phenylquinoline-4-carboxylic acid

> <PUBCHEM_IUPAC_TRADITIONAL_NAME>
2-phenylcinchoninic acid

> <PUBCHEM_IUPAC_INCHI>
InChI=1S/C16H11NO2/c18-16(19)13-10-15(11-6-2-1-3-7-11)17-14-9-5-4-8-12(13)14/h1-10H,(H,18,19)

> <PUBCHEM_IUPAC_INCHIKEY>
YTRMTPPVNRALON-UHFFFAOYSA-N

> <PUBCHEM_XLOGP3_AA>
3.4

> <PUBCHEM_EXACT_MASS>
249.078979

> <PUBCHEM_MOLECULAR_FORMULA>
C16H11NO2

> <PUBCHEM_MOLECULAR_WEIGHT>
249.26404

> <PUBCHEM_OPENEYE_CAN_SMILES>
C1=CC=C(C=C1)C2=NC3=CC=CC=C3C(=C2)C(=O)O

> <PUBCHEM_OPENEYE_ISO_SMILES>
C1=CC=C(C=C1)C2=NC3=CC=CC=C3C(=C2)C(=O)O

> <PUBCHEM_CACTVS_TPSA>
50.2

> <PUBCHEM_MONOISOTOPIC_WEIGHT>
249.078979

> <PUBCHEM_TOTAL_CHARGE>
0

> <PUBCHEM_HEAVY_ATOM_COUNT>
19

> <PUBCHEM_ATOM_DEF_STEREO_COUNT>
0

> <PUBCHEM_ATOM_UDEF_STEREO_COUNT>
0

> <PUBCHEM_BOND_DEF_STEREO_COUNT>
0

> <PUBCHEM_BOND_UDEF_STEREO_COUNT>
0

> <PUBCHEM_ISOTOPIC_ATOM_COUNT>
0

> <PUBCHEM_COMPONENT_COUNT>
1

> <PUBCHEM_CACTVS_TAUTO_COUNT>
1

> <PUBCHEM_COORDINATE_TYPE>
1
5
255

> <PUBCHEM_BONDANNOTATIONS>
10  12  8
11  13  8
12  13  8
14  17  8
15  18  8
17  19  8
18  19  8
3  5  8
3  6  8
4  10  8
4  5  8
4  7  8
5  11  8
6  8  8
7  8  8
9  14  8
9  15  8

> <DRUG_ID>
w212

> <DRUG_NAME>
Cinchophen

$$$$
2244
  CDK     0927151942
null
 21 21  0  0  0  0  0  0  0  0999 V2000
    3.7320   -0.0600    0.0000 O   0  0  0  0  0  0  0  0  0  0  0  0
    6.3301    1.4400    0.0000 O   0  0  0  0  0  0  0  0  0  0  0  0
    4.5981    1.4400    0.0000 O   0  0  0  0  0  0  0  0  0  0  0  0
    2.8660   -1.5600    0.0000 O   0  0  0  0  0  0  0  0  0  0  0  0
    4.5981   -0.5600    0.0000 C   0  0  0  0  0  0  0  0  0  0  0  0
    5.4641   -0.0600    0.0000 C   0  0  0  0  0  0  0  0  0  0  0  0
    4.5981   -1.5600    0.0000 C   0  0  0  0  0  0  0  0  0  0  0  0
    6.3301   -0.5600    0.0000 C   0  0  0  0  0  0  0  0  0  0  0  0
    5.4641   -2.0600    0.0000 C   0  0  0  0  0  0  0  0  0  0  0  0
    6.3301   -1.5600    0.0000 C   0  0  0  0  0  0  0  0  0  0  0  0
    5.4641    0.9400    0.0000 C   0  0  0  0  0  0  0  0  0  0  0  0
    2.8660   -0.5600    0.0000 C   0  0  0  0  0  0  0  0  0  0  0  0
    2.0000   -0.0600    0.0000 C   0  0  0  0  0  0  0  0  0  0  0  0
    4.0611   -1.8700    0.0000 H   0  0  0  0  0  0  0  0  0  0  0  0
    6.8671   -0.2500    0.0000 H   0  0  0  0  0  0  0  0  0  0  0  0
    5.4641   -2.6800    0.0000 H   0  0  0  0  0  0  0  0  0  0  0  0
    6.8671   -1.8700    0.0000 H   0  0  0  0  0  0  0  0  0  0  0  0
    2.3100    0.4769    0.0000 H   0  0  0  0  0  0  0  0  0  0  0  0
    1.4631    0.2500    0.0000 H   0  0  0  0  0  0  0  0  0  0  0  0
    1.6900   -0.5969    0.0000 H   0  0  0  0  0  0  0  0  0  0  0  0
    6.3301    2.0600    0.0000 H   0  0  0  0  0  0  0  0  0  0  0  0
  1  5  1  0  0  0  0 
  1 12  1  0  0  0  0 
  2 11  1  0  0  0  0 
  2 21  1  0  0  0  0 
  3 11  2  0  0  0  0 
  4 12  2  0  0  0  0 
  5  6  1  0  0  0  0 
  5  7  2  0  0  0  0 
  6  8  2  0  0  0  0 
  6 11  1  0  0  0  0 
  7  9  1  0  0  0  0 
  7 14  1  0  0  0  0 
  8 10  1  0  0  0  0 
  8 15  1  0  0  0  0 
  9 10  2  0  0  0  0 
  9 16  1  0  0  0  0 
 10 17  1  0  0  0  0 
 12 13  1  0  0  0  0 
 13 18  1  0  0  0  0 
 13 19  1  0  0  0  0 
 13 20  1  0  0  0  0 
M  END
> <cdk:Title>
2244

> <cdk:Remark>
null

> <PUBCHEM_COMPOUND_CID>
2244

> <PUBCHEM_COMPOUND_CANONICALIZED>
1

> <PUBCHEM_CACTVS_COMPLEXITY>
212

> <PUBCHEM_CACTVS_HBOND_ACCEPTOR>
4

> <PUBCHEM_CACTVS_HBOND_DONOR>
1

> <PUBCHEM_CACTVS_ROTATABLE_BOND>
3

> <PUBCHEM_CACTVS_SUBSKEYS>
AAADccBwOAAAAAAAAAAAAAAAAAAAAAAAAAAwAAAAAAAAAAABAAAAGgAACAAADASAmAAyDoAABgCIAiDSCAACCAAkIAAIiAEGCMgMJzaENRqCe2Cl4BEIuYeIyCCOAAAAAAAIAAAAAAAAABAAAAAAAAAAAA==

> <PUBCHEM_IUPAC_OPENEYE_NAME>
2-acetoxybenzoic acid

> <PUBCHEM_IUPAC_CAS_NAME>
2-acetyloxybenzoic acid

> <PUBCHEM_IUPAC_NAME>
2-acetyloxybenzoic acid

> <PUBCHEM_IUPAC_SYSTEMATIC_NAME>
2-acetyloxybenzoic acid

> <PUBCHEM_IUPAC_TRADITIONAL_NAME>
2-acetoxybenzoic acid

> <PUBCHEM_IUPAC_INCHI>
InChI=1S/C9H8O4/c1-6(10)13-8-5-3-2-4-7(8)9(11)12/h2-5H,1H3,(H,11,12)

> <PUBCHEM_IUPAC_INCHIKEY>
BSYNRYMUTXBXSQ-UHFFFAOYSA-N

> <PUBCHEM_XLOGP3>
1.2

> <PUBCHEM_EXACT_MASS>
180.042259

> <PUBCHEM_MOLECULAR_FORMULA>
C9H8O4

> <PUBCHEM_MOLECULAR_WEIGHT>
180.15742

> <PUBCHEM_OPENEYE_CAN_SMILES>
CC(=O)OC1=CC=CC=C1C(=O)O

> <PUBCHEM_OPENEYE_ISO_SMILES>
CC(=O)OC1=CC=CC=C1C(=O)O

> <PUBCHEM_CACTVS_TPSA>
63.6

> <PUBCHEM_MONOISOTOPIC_WEIGHT>
180.042259

> <PUBCHEM_TOTAL_CHARGE>
0

> <PUBCHEM_HEAVY_ATOM_COUNT>
13

> <PUBCHEM_ATOM_DEF_STEREO_COUNT>
0

> <PUBCHEM_ATOM_UDEF_STEREO_COUNT>
0

> <PUBCHEM_BOND_DEF_STEREO_COUNT>
0

> <PUBCHEM_BOND_UDEF_STEREO_COUNT>
0

> <PUBCHEM_ISOTOPIC_ATOM_COUNT>
0

> <PUBCHEM_COMPONENT_COUNT>
1

> <PUBCHEM_CACTVS_TAUTO_COUNT>
2

> <PUBCHEM_COORDINATE_TYPE>
1
5
255

> <PUBCHEM_BONDANNOTATIONS>
5  6  8
5  7  8
6  8  8
7  9  8
8  10  8
9  10  8

> <DRUG_ID>
w213

> <DRUG_NAME>
Acetylsalicylic Acid

$$$$
6009
  CDK     0927151942
null
 34 35  0  0  0  0  0  0  0  0999 V2000
    5.5202    0.1481    0.0000 O   0  0  0  0  0  0  0  0  0  0  0  0
    2.9511    0.4571    0.0000 N   0  0  3  0  0  0  0  0  0  0  0  0
    3.7601   -0.1307    0.0000 N   0  0  0  0  0  0  0  0  0  0  0  0
    4.8479    2.2172    0.0000 N   0  0  0  0  0  0  0  0  0  0  0  0
    3.2601    1.4081    0.0000 C   0  0  0  0  0  0  0  0  0  0  0  0
    4.2601    1.4081    0.0000 C   0  0  0  0  0  0  0  0  0  0  0  0
    4.5691    0.4571    0.0000 C   0  0  0  0  0  0  0  0  0  0  0  0
    3.7601   -1.1307    0.0000 C   0  0  0  0  0  0  0  0  0  0  0  0
    2.6723    2.2172    0.0000 C   0  0  0  0  0  0  0  0  0  0  0  0
    2.0000    0.1481    0.0000 C   0  0  0  0  0  0  0  0  0  0  0  0
    4.4411    3.1307    0.0000 C   0  0  0  0  0  0  0  0  0  0  0  0
    5.8424    2.1126    0.0000 C   0  0  0  0  0  0  0  0  0  0  0  0
    2.8940   -1.6307    0.0000 C   0  0  0  0  0  0  0  0  0  0  0  0
    4.6261   -1.6307    0.0000 C   0  0  0  0  0  0  0  0  0  0  0  0
    2.8940   -2.6307    0.0000 C   0  0  0  0  0  0  0  0  0  0  0  0
    4.6261   -2.6307    0.0000 C   0  0  0  0  0  0  0  0  0  0  0  0
    3.7601   -3.1307    0.0000 C   0  0  0  0  0  0  0  0  0  0  0  0
    3.1739    2.5816    0.0000 H   0  0  0  0  0  0  0  0  0  0  0  0
    2.3079    2.7188    0.0000 H   0  0  0  0  0  0  0  0  0  0  0  0
    2.1707    1.8527    0.0000 H   0  0  0  0  0  0  0  0  0  0  0  0
    1.8084    0.7377    0.0000 H   0  0  0  0  0  0  0  0  0  0  0  0
    1.4103   -0.0435    0.0000 H   0  0  0  0  0  0  0  0  0  0  0  0
    2.1916   -0.4416    0.0000 H   0  0  0  0  0  0  0  0  0  0  0  0
    5.7776    1.4960    0.0000 H   0  0  0  0  0  0  0  0  0  0  0  0
    6.4590    2.0478    0.0000 H   0  0  0  0  0  0  0  0  0  0  0  0
    5.9072    2.7292    0.0000 H   0  0  0  0  0  0  0  0  0  0  0  0
    5.0075    3.3829    0.0000 H   0  0  0  0  0  0  0  0  0  0  0  0
    4.1890    3.6971    0.0000 H   0  0  0  0  0  0  0  0  0  0  0  0
    3.8747    2.8785    0.0000 H   0  0  0  0  0  0  0  0  0  0  0  0
    2.3571   -1.3207    0.0000 H   0  0  0  0  0  0  0  0  0  0  0  0
    5.1630   -1.3207    0.0000 H   0  0  0  0  0  0  0  0  0  0  0  0
    2.3571   -2.9407    0.0000 H   0  0  0  0  0  0  0  0  0  0  0  0
    5.1630   -2.9407    0.0000 H   0  0  0  0  0  0  0  0  0  0  0  0
    3.7601   -3.7507    0.0000 H   0  0  0  0  0  0  0  0  0  0  0  0
  1  7  2  0  0  0  0 
  2  3  1  0  0  0  0 
  2  5  1  0  0  0  0 
  2 10  1  0  0  0  0 
  3  7  1  0  0  0  0 
  3  8  1  0  0  0  0 
  4  6  1  0  0  0  0 
  4 11  1  0  0  0  0 
  4 12  1  0  0  0  0 
  5  6  2  0  0  0  0 
  5  9  1  0  0  0  0 
  6  7  1  0  0  0  0 
  8 13  2  0  0  0  0 
  8 14  1  0  0  0  0 
  9 18  1  0  0  0  0 
  9 19  1  0  0  0  0 
  9 20  1  0  0  0  0 
 10 21  1  0  0  0  0 
 10 22  1  0  0  0  0 
 10 23  1  0  0  0  0 
 11 27  1  0  0  0  0 
 11 28  1  0  0  0  0 
 11 29  1  0  0  0  0 
 12 24  1  0  0  0  0 
 12 25  1  0  0  0  0 
 12 26  1  0  0  0  0 
 13 15  1  0  0  0  0 
 13 30  1  0  0  0  0 
 14 16  2  0  0  0  0 
 14 31  1  0  0  0  0 
 15 17  2  0  0  0  0 
 15 32  1  0  0  0  0 
 16 17  1  0  0  0  0 
 16 33  1  0  0  0  0 
 17 34  1  0  0  0  0 
M  END
> <cdk:Title>
6009

> <cdk:Remark>
null

> <PUBCHEM_COMPOUND_CID>
6009

> <PUBCHEM_COMPOUND_CANONICALIZED>
1

> <PUBCHEM_CACTVS_COMPLEXITY>
343

> <PUBCHEM_CACTVS_HBOND_ACCEPTOR>
3

> <PUBCHEM_CACTVS_HBOND_DONOR>
0

> <PUBCHEM_CACTVS_ROTATABLE_BOND>
2

> <PUBCHEM_CACTVS_SUBSKEYS>
AAADceBzIAAAAAAAAAAAAAAAAAAAAQAAAAAwAAAAAAAAAAABAAAAHgAIAAAACAiBkAQywIMAAACIACVSUACCBAAhAgAaiACIZMgIYCLAkbGUIAhghADIyUcQAAAAAAAAAAAAAAAAAAAAAAAAAAAAAAAAAA==

> <PUBCHEM_IUPAC_OPENEYE_NAME>
4-(dimethylamino)-1,5-dimethyl-2-phenyl-pyrazol-3-one

> <PUBCHEM_IUPAC_CAS_NAME>
4-(dimethylamino)-1,5-dimethyl-2-phenyl-3-pyrazolone

> <PUBCHEM_IUPAC_NAME>
4-(dimethylamino)-1,5-dimethyl-2-phenylpyrazol-3-one

> <PUBCHEM_IUPAC_SYSTEMATIC_NAME>
4-(dimethylamino)-1,5-dimethyl-2-phenyl-pyrazol-3-one

> <PUBCHEM_IUPAC_TRADITIONAL_NAME>
4-(dimethylamino)-1,5-dimethyl-2-phenyl-3-pyrazolin-3-one

> <PUBCHEM_IUPAC_INCHI>
InChI=1S/C13H17N3O/c1-10-12(14(2)3)13(17)16(15(10)4)11-8-6-5-7-9-11/h5-9H,1-4H3

> <PUBCHEM_IUPAC_INCHIKEY>
RMMXTBMQSGEXHJ-UHFFFAOYSA-N

> <PUBCHEM_XLOGP3>
1

> <PUBCHEM_EXACT_MASS>
231.137162

> <PUBCHEM_MOLECULAR_FORMULA>
C13H17N3O

> <PUBCHEM_MOLECULAR_WEIGHT>
231.29358

> <PUBCHEM_OPENEYE_CAN_SMILES>
CC1=C(C(=O)N(N1C)C2=CC=CC=C2)N(C)C

> <PUBCHEM_OPENEYE_ISO_SMILES>
CC1=C(C(=O)N(N1C)C2=CC=CC=C2)N(C)C

> <PUBCHEM_CACTVS_TPSA>
26.8

> <PUBCHEM_MONOISOTOPIC_WEIGHT>
231.137162

> <PUBCHEM_TOTAL_CHARGE>
0

> <PUBCHEM_HEAVY_ATOM_COUNT>
17

> <PUBCHEM_ATOM_DEF_STEREO_COUNT>
0

> <PUBCHEM_ATOM_UDEF_STEREO_COUNT>
0

> <PUBCHEM_BOND_DEF_STEREO_COUNT>
0

> <PUBCHEM_BOND_UDEF_STEREO_COUNT>
0

> <PUBCHEM_ISOTOPIC_ATOM_COUNT>
0

> <PUBCHEM_COMPONENT_COUNT>
1

> <PUBCHEM_CACTVS_TAUTO_COUNT>
1

> <PUBCHEM_COORDINATE_TYPE>
1
5
255

> <PUBCHEM_BONDANNOTATIONS>
13  15  8
14  16  8
15  17  8
16  17  8
2  3  8
2  5  8
3  7  8
5  6  8
6  7  8
8  13  8
8  14  8

> <DRUG_ID>
w215

> <DRUG_NAME>
Aminopyrine

$$$$
4763
  CDK     0927151942
null
 29 30  0  0  0  0  0  0  0  0999 V2000
    5.4641    0.2010    0.0000 O   0  0  0  0  0  0  0  0  0  0  0  0
    2.0000    0.2010    0.0000 O   0  0  0  0  0  0  0  0  0  0  0  0
    3.7320   -2.7990    0.0000 O   0  0  0  0  0  0  0  0  0  0  0  0
    4.5981   -1.2990    0.0000 N   0  0  0  0  0  0  0  0  0  0  0  0
    2.8660   -1.2990    0.0000 N   0  0  0  0  0  0  0  0  0  0  0  0
    3.7320    0.2010    0.0000 C   0  0  0  0  0  0  0  0  0  0  0  0
    3.2320    1.0670    0.0000 C   0  0  0  0  0  0  0  0  0  0  0  0
    4.2320    1.0670    0.0000 C   0  0  0  0  0  0  0  0  0  0  0  0
    4.5981   -0.2990    0.0000 C   0  0  0  0  0  0  0  0  0  0  0  0
    2.8660   -0.2990    0.0000 C   0  0  0  0  0  0  0  0  0  0  0  0
    2.2320    1.0670    0.0000 C   0  0  0  0  0  0  0  0  0  0  0  0
    5.2320    1.0670    0.0000 C   0  0  0  0  0  0  0  0  0  0  0  0
    3.7320    1.9330    0.0000 C   0  0  0  0  0  0  0  0  0  0  0  0
    3.7320   -1.7990    0.0000 C   0  0  0  0  0  0  0  0  0  0  0  0
    5.7320    1.9330    0.0000 C   0  0  0  0  0  0  0  0  0  0  0  0
    4.2320    2.7990    0.0000 C   0  0  0  0  0  0  0  0  0  0  0  0
    5.2320    2.7990    0.0000 C   0  0  0  0  0  0  0  0  0  0  0  0
    3.8147    1.2790    0.0000 H   0  0  0  0  0  0  0  0  0  0  0  0
    3.1244    1.6776    0.0000 H   0  0  0  0  0  0  0  0  0  0  0  0
    2.2320    1.6870    0.0000 H   0  0  0  0  0  0  0  0  0  0  0  0
    1.6120    1.0670    0.0000 H   0  0  0  0  0  0  0  0  0  0  0  0
    2.2320    0.4470    0.0000 H   0  0  0  0  0  0  0  0  0  0  0  0
    5.1350   -1.6090    0.0000 H   0  0  0  0  0  0  0  0  0  0  0  0
    2.3291   -1.6090    0.0000 H   0  0  0  0  0  0  0  0  0  0  0  0
    5.5420    0.5301    0.0000 H   0  0  0  0  0  0  0  0  0  0  0  0
    3.1120    1.9330    0.0000 H   0  0  0  0  0  0  0  0  0  0  0  0
    6.3520    1.9330    0.0000 H   0  0  0  0  0  0  0  0  0  0  0  0
    3.9220    3.3360    0.0000 H   0  0  0  0  0  0  0  0  0  0  0  0
    5.5420    3.3360    0.0000 H   0  0  0  0  0  0  0  0  0  0  0  0
  1  9  2  0  0  0  0 
  2 10  2  0  0  0  0 
  3 14  2  0  0  0  0 
  4  9  1  0  0  0  0 
  4 14  1  0  0  0  0 
  4 23  1  0  0  0  0 
  5 10  1  0  0  0  0 
  5 14  1  0  0  0  0 
  5 24  1  0  0  0  0 
  6  7  1  0  0  0  0 
  6  8  1  0  0  0  0 
  6  9  1  0  0  0  0 
  6 10  1  0  0  0  0 
  7 11  1  0  0  0  0 
  7 18  1  0  0  0  0 
  7 19  1  0  0  0  0 
  8 12  2  0  0  0  0 
  8 13  1  0  0  0  0 
 11 20  1  0  0  0  0 
 11 21  1  0  0  0  0 
 11 22  1  0  0  0  0 
 12 15  1  0  0  0  0 
 12 25  1  0  0  0  0 
 13 16  2  0  0  0  0 
 13 26  1  0  0  0  0 
 15 17  2  0  0  0  0 
 15 27  1  0  0  0  0 
 16 17  1  0  0  0  0 
 16 28  1  0  0  0  0 
 17 29  1  0  0  0  0 
M  END
> <cdk:Title>
4763

> <cdk:Remark>
null

> <PUBCHEM_COMPOUND_CID>
4763

> <PUBCHEM_COMPOUND_CANONICALIZED>
1

> <PUBCHEM_CACTVS_COMPLEXITY>
339

> <PUBCHEM_CACTVS_HBOND_ACCEPTOR>
3

> <PUBCHEM_CACTVS_HBOND_DONOR>
2

> <PUBCHEM_CACTVS_ROTATABLE_BOND>
2

> <PUBCHEM_CACTVS_SUBSKEYS>
AAADccBzMAAAAAAAAAAAAAAAAAAAAAAAAAA8QAAAAAAAAAABAAAAHgAQAAAADgCBmAAzAILAAACIAiFSEAACAAAgAAAIiAEAAIiIIDqI1RGEIAAohSIIiAcYiMCPgAAAAAAAAAAAAAAAAAAAAAAAAAAAAA==

> <PUBCHEM_IUPAC_OPENEYE_NAME>
5-ethyl-5-phenyl-hexahydropyrimidine-2,4,6-trione

> <PUBCHEM_IUPAC_CAS_NAME>
5-ethyl-5-phenyl-1,3-diazinane-2,4,6-trione

> <PUBCHEM_IUPAC_NAME>
5-ethyl-5-phenyl-1,3-diazinane-2,4,6-trione

> <PUBCHEM_IUPAC_SYSTEMATIC_NAME>
5-ethyl-5-phenyl-1,3-diazinane-2,4,6-trione

> <PUBCHEM_IUPAC_TRADITIONAL_NAME>
5-ethyl-5-phenyl-barbituric acid

> <PUBCHEM_IUPAC_INCHI>
InChI=1S/C12H12N2O3/c1-2-12(8-6-4-3-5-7-8)9(15)13-11(17)14-10(12)16/h3-7H,2H2,1H3,(H2,13,14,15,16,17)

> <PUBCHEM_IUPAC_INCHIKEY>
DDBREPKUVSBGFI-UHFFFAOYSA-N

> <PUBCHEM_XLOGP3>
1.5

> <PUBCHEM_EXACT_MASS>
232.084792

> <PUBCHEM_MOLECULAR_FORMULA>
C12H12N2O3

> <PUBCHEM_MOLECULAR_WEIGHT>
232.23528

> <PUBCHEM_OPENEYE_CAN_SMILES>
CCC1(C(=O)NC(=O)NC1=O)C2=CC=CC=C2

> <PUBCHEM_OPENEYE_ISO_SMILES>
CCC1(C(=O)NC(=O)NC1=O)C2=CC=CC=C2

> <PUBCHEM_CACTVS_TPSA>
75.3

> <PUBCHEM_MONOISOTOPIC_WEIGHT>
232.084792

> <PUBCHEM_TOTAL_CHARGE>
0

> <PUBCHEM_HEAVY_ATOM_COUNT>
17

> <PUBCHEM_ATOM_DEF_STEREO_COUNT>
0

> <PUBCHEM_ATOM_UDEF_STEREO_COUNT>
0

> <PUBCHEM_BOND_DEF_STEREO_COUNT>
0

> <PUBCHEM_BOND_UDEF_STEREO_COUNT>
0

> <PUBCHEM_ISOTOPIC_ATOM_COUNT>
0

> <PUBCHEM_COMPONENT_COUNT>
1

> <PUBCHEM_CACTVS_TAUTO_COUNT>
5

> <PUBCHEM_COORDINATE_TYPE>
1
5
255

> <PUBCHEM_BONDANNOTATIONS>
12  15  8
13  16  8
15  17  8
16  17  8
8  12  8
8  13  8

> <DRUG_ID>
w216

> <DRUG_NAME>
Phenobarbital

$$$$
3331
  CDK     0927151942
null
 31 31  0  0  0  0  0  0  0  0999 V2000
    3.7320    1.3450    0.0000 O   0  0  0  0  0  0  0  0  0  0  0  0
    5.4641    1.3450    0.0000 O   0  0  0  0  0  0  0  0  0  0  0  0
    7.1962    1.3450    0.0000 O   0  0  0  0  0  0  0  0  0  0  0  0
    2.0000    1.3450    0.0000 O   0  0  0  0  0  0  0  0  0  0  0  0
    6.3301    2.8450    0.0000 N   0  0  0  0  0  0  0  0  0  0  0  0
    2.8660    2.8450    0.0000 N   0  0  0  0  0  0  0  0  0  0  0  0
    4.5981   -0.1550    0.0000 C   0  0  0  0  0  0  0  0  0  0  0  0
    4.5981   -1.1550    0.0000 C   0  0  0  0  0  0  0  0  0  0  0  0
    5.4641    0.3450    0.0000 C   0  0  0  0  0  0  0  0  0  0  0  0
    3.7320    0.3450    0.0000 C   0  0  0  0  0  0  0  0  0  0  0  0
    3.7320   -1.6550    0.0000 C   0  0  0  0  0  0  0  0  0  0  0  0
    5.4641   -1.6550    0.0000 C   0  0  0  0  0  0  0  0  0  0  0  0
    3.7320   -2.6550    0.0000 C   0  0  0  0  0  0  0  0  0  0  0  0
    5.4641   -2.6550    0.0000 C   0  0  0  0  0  0  0  0  0  0  0  0
    4.5981   -3.1550    0.0000 C   0  0  0  0  0  0  0  0  0  0  0  0
    6.3301    1.8450    0.0000 C   0  0  0  0  0  0  0  0  0  0  0  0
    2.8660    1.8450    0.0000 C   0  0  0  0  0  0  0  0  0  0  0  0
    4.5981    0.4650    0.0000 H   0  0  0  0  0  0  0  0  0  0  0  0
    5.6762   -0.2376    0.0000 H   0  0  0  0  0  0  0  0  0  0  0  0
    6.0747    0.4527    0.0000 H   0  0  0  0  0  0  0  0  0  0  0  0
    3.1215    0.4527    0.0000 H   0  0  0  0  0  0  0  0  0  0  0  0
    3.5200   -0.2376    0.0000 H   0  0  0  0  0  0  0  0  0  0  0  0
    3.1951   -1.3450    0.0000 H   0  0  0  0  0  0  0  0  0  0  0  0
    6.0010   -1.3450    0.0000 H   0  0  0  0  0  0  0  0  0  0  0  0
    3.1951   -2.9650    0.0000 H   0  0  0  0  0  0  0  0  0  0  0  0
    6.0010   -2.9650    0.0000 H   0  0  0  0  0  0  0  0  0  0  0  0
    4.5981   -3.7750    0.0000 H   0  0  0  0  0  0  0  0  0  0  0  0
    6.8671    3.1550    0.0000 H   0  0  0  0  0  0  0  0  0  0  0  0
    5.7932    3.1550    0.0000 H   0  0  0  0  0  0  0  0  0  0  0  0
    2.3291    3.1550    0.0000 H   0  0  0  0  0  0  0  0  0  0  0  0
    3.4030    3.1550    0.0000 H   0  0  0  0  0  0  0  0  0  0  0  0
  1 10  1  0  0  0  0 
  1 17  1  0  0  0  0 
  2  9  1  0  0  0  0 
  2 16  1  0  0  0  0 
  3 16  2  0  0  0  0 
  4 17  2  0  0  0  0 
  5 16  1  0  0  0  0 
  5 28  1  0  0  0  0 
  5 29  1  0  0  0  0 
  6 17  1  0  0  0  0 
  6 30  1  0  0  0  0 
  6 31  1  0  0  0  0 
  7  8  1  0  0  0  0 
  7  9  1  0  0  0  0 
  7 10  1  0  0  0  0 
  7 18  1  0  0  0  0 
  8 11  2  0  0  0  0 
  8 12  1  0  0  0  0 
  9 19  1  0  0  0  0 
  9 20  1  0  0  0  0 
 10 21  1  0  0  0  0 
 10 22  1  0  0  0  0 
 11 13  1  0  0  0  0 
 11 23  1  0  0  0  0 
 12 14  2  0  0  0  0 
 12 24  1  0  0  0  0 
 13 15  2  0  0  0  0 
 13 25  1  0  0  0  0 
 14 15  1  0  0  0  0 
 14 26  1  0  0  0  0 
 15 27  1  0  0  0  0 
M  END
> <cdk:Title>
3331

> <cdk:Remark>
null

> <PUBCHEM_COMPOUND_CID>
3331

> <PUBCHEM_COMPOUND_CANONICALIZED>
1

> <PUBCHEM_CACTVS_COMPLEXITY>
246

> <PUBCHEM_CACTVS_HBOND_ACCEPTOR>
4

> <PUBCHEM_CACTVS_HBOND_DONOR>
2

> <PUBCHEM_CACTVS_ROTATABLE_BOND>
7

> <PUBCHEM_CACTVS_SUBSKEYS>
AAADccBzOAAAAAAAAAAAAAAAAAAAAAAAAAAwAAAAAAAAAAABAAAAHgAQAAAADQCgmAIwCIBABACIAiBCGAACAAAgAAAIiAAAAIkIICKAERCIIAAlwAEIiAeAwOAOgAAAAAAAAAAAAAAAAAAAAAAAAAAAAA==

> <PUBCHEM_IUPAC_OPENEYE_NAME>
(3-carbamoyloxy-2-phenyl-propyl) carbamate

> <PUBCHEM_IUPAC_CAS_NAME>
carbamic acid (3-carbamoyloxy-2-phenylpropyl) ester

> <PUBCHEM_IUPAC_NAME>
(3-carbamoyloxy-2-phenylpropyl) carbamate

> <PUBCHEM_IUPAC_SYSTEMATIC_NAME>
(3-aminocarbonyloxy-2-phenyl-propyl) carbamate

> <PUBCHEM_IUPAC_TRADITIONAL_NAME>
carbamic acid (3-carbamoyloxy-2-phenyl-propyl) ester

> <PUBCHEM_IUPAC_INCHI>
InChI=1S/C11H14N2O4/c12-10(14)16-6-9(7-17-11(13)15)8-4-2-1-3-5-8/h1-5,9H,6-7H2,(H2,12,14)(H2,13,15)

> <PUBCHEM_IUPAC_INCHIKEY>
WKGXYQFOCVYPAC-UHFFFAOYSA-N

> <PUBCHEM_XLOGP3_AA>
0.6

> <PUBCHEM_EXACT_MASS>
238.095357

> <PUBCHEM_MOLECULAR_FORMULA>
C11H14N2O4

> <PUBCHEM_MOLECULAR_WEIGHT>
238.23986

> <PUBCHEM_OPENEYE_CAN_SMILES>
C1=CC=C(C=C1)C(COC(=O)N)COC(=O)N

> <PUBCHEM_OPENEYE_ISO_SMILES>
C1=CC=C(C=C1)C(COC(=O)N)COC(=O)N

> <PUBCHEM_CACTVS_TPSA>
105

> <PUBCHEM_MONOISOTOPIC_WEIGHT>
238.095357

> <PUBCHEM_TOTAL_CHARGE>
0

> <PUBCHEM_HEAVY_ATOM_COUNT>
17

> <PUBCHEM_ATOM_DEF_STEREO_COUNT>
0

> <PUBCHEM_ATOM_UDEF_STEREO_COUNT>
0

> <PUBCHEM_BOND_DEF_STEREO_COUNT>
0

> <PUBCHEM_BOND_UDEF_STEREO_COUNT>
0

> <PUBCHEM_ISOTOPIC_ATOM_COUNT>
0

> <PUBCHEM_COMPONENT_COUNT>
1

> <PUBCHEM_CACTVS_TAUTO_COUNT>
3

> <PUBCHEM_COORDINATE_TYPE>
1
5
255

> <PUBCHEM_BONDANNOTATIONS>
11  13  8
12  14  8
13  15  8
14  15  8
8  11  8
8  12  8

> <DRUG_ID>
w217

> <DRUG_NAME>
Felbamate

$$$$
68778
  CDK     0927151942
null
 49 51  0  0  0  0  0  0  0  0999 V2000
    4.0000   -1.2990    0.0000 N   0  0  0  0  0  0  0  0  0  0  0  0
    4.0000    0.7010    0.0000 C   0  0  0  0  0  0  0  0  0  0  0  0
    4.8660    0.2010    0.0000 C   0  0  0  0  0  0  0  0  0  0  0  0
    3.1340    0.2010    0.0000 C   0  0  0  0  0  0  0  0  0  0  0  0
    4.8660   -0.7990    0.0000 C   0  0  0  0  0  0  0  0  0  0  0  0
    3.1340   -0.7990    0.0000 C   0  0  0  0  0  0  0  0  0  0  0  0
    4.0000   -2.2990    0.0000 C   0  0  0  0  0  0  0  0  0  0  0  0
    4.9397    1.0430    0.0000 C   0  0  0  0  0  0  0  0  0  0  0  0
    3.5000    1.5670    0.0000 C   0  0  0  0  0  0  0  0  0  0  0  0
    4.0000   -3.2990    0.0000 C   0  0  0  0  0  0  0  0  0  0  0  0
    3.0000   -2.2990    0.0000 C   0  0  0  0  0  0  0  0  0  0  0  0
    5.0000   -2.2990    0.0000 C   0  0  0  0  0  0  0  0  0  0  0  0
    2.5000    1.5670    0.0000 C   0  0  0  0  0  0  0  0  0  0  0  0
    5.7057    0.4002    0.0000 C   0  0  0  0  0  0  0  0  0  0  0  0
    4.0000    2.4330    0.0000 C   0  0  0  0  0  0  0  0  0  0  0  0
    5.1133    2.0278    0.0000 C   0  0  0  0  0  0  0  0  0  0  0  0
    2.0000    2.4330    0.0000 C   0  0  0  0  0  0  0  0  0  0  0  0
    6.6454    0.7422    0.0000 C   0  0  0  0  0  0  0  0  0  0  0  0
    3.5000    3.2990    0.0000 C   0  0  0  0  0  0  0  0  0  0  0  0
    6.0530    2.3698    0.0000 C   0  0  0  0  0  0  0  0  0  0  0  0
    2.5000    3.2990    0.0000 C   0  0  0  0  0  0  0  0  0  0  0  0
    6.8191    1.7270    0.0000 C   0  0  0  0  0  0  0  0  0  0  0  0
    5.4766    0.0933    0.0000 H   0  0  0  0  0  0  0  0  0  0  0  0
    5.0781    0.7836    0.0000 H   0  0  0  0  0  0  0  0  0  0  0  0
    2.9219    0.7836    0.0000 H   0  0  0  0  0  0  0  0  0  0  0  0
    2.5234    0.0933    0.0000 H   0  0  0  0  0  0  0  0  0  0  0  0
    5.0781   -1.3816    0.0000 H   0  0  0  0  0  0  0  0  0  0  0  0
    5.4766   -0.6914    0.0000 H   0  0  0  0  0  0  0  0  0  0  0  0
    2.5234   -0.6914    0.0000 H   0  0  0  0  0  0  0  0  0  0  0  0
    2.9219   -1.3816    0.0000 H   0  0  0  0  0  0  0  0  0  0  0  0
    3.3800   -3.2990    0.0000 H   0  0  0  0  0  0  0  0  0  0  0  0
    4.0000   -3.9190    0.0000 H   0  0  0  0  0  0  0  0  0  0  0  0
    4.6200   -3.2990    0.0000 H   0  0  0  0  0  0  0  0  0  0  0  0
    3.0000   -1.6790    0.0000 H   0  0  0  0  0  0  0  0  0  0  0  0
    2.3800   -2.2990    0.0000 H   0  0  0  0  0  0  0  0  0  0  0  0
    3.0000   -2.9190    0.0000 H   0  0  0  0  0  0  0  0  0  0  0  0
    5.0000   -2.9190    0.0000 H   0  0  0  0  0  0  0  0  0  0  0  0
    5.6200   -2.2990    0.0000 H   0  0  0  0  0  0  0  0  0  0  0  0
    5.0000   -1.6790    0.0000 H   0  0  0  0  0  0  0  0  0  0  0  0
    2.1900    1.0300    0.0000 H   0  0  0  0  0  0  0  0  0  0  0  0
    5.5981   -0.2104    0.0000 H   0  0  0  0  0  0  0  0  0  0  0  0
    4.6200    2.4330    0.0000 H   0  0  0  0  0  0  0  0  0  0  0  0
    4.6384    2.4263    0.0000 H   0  0  0  0  0  0  0  0  0  0  0  0
    1.3800    2.4330    0.0000 H   0  0  0  0  0  0  0  0  0  0  0  0
    7.1204    0.3437    0.0000 H   0  0  0  0  0  0  0  0  0  0  0  0
    3.8100    3.8360    0.0000 H   0  0  0  0  0  0  0  0  0  0  0  0
    6.1607    2.9804    0.0000 H   0  0  0  0  0  0  0  0  0  0  0  0
    7.4017    1.9391    0.0000 H   0  0  0  0  0  0  0  0  0  0  0  0
    2.1900    3.8360    0.0000 H   0  0  0  0  0  0  0  0  0  0  0  0
  1  5  1  0  0  0  0 
  1  6  1  0  0  0  0 
  1  7  1  0  0  0  0 
  2  3  1  0  0  0  0 
  2  4  1  0  0  0  0 
  2  8  1  0  0  0  0 
  2  9  1  0  0  0  0 
  3  5  1  0  0  0  0 
  3 23  1  0  0  0  0 
  3 24  1  0  0  0  0 
  4  6  1  0  0  0  0 
  4 25  1  0  0  0  0 
  4 26  1  0  0  0  0 
  5 27  1  0  0  0  0 
  5 28  1  0  0  0  0 
  6 29  1  0  0  0  0 
  6 30  1  0  0  0  0 
  7 10  1  0  0  0  0 
  7 11  1  0  0  0  0 
  7 12  1  0  0  0  0 
  8 14  2  0  0  0  0 
  8 16  1  0  0  0  0 
  9 13  2  0  0  0  0 
  9 15  1  0  0  0  0 
 10 31  1  0  0  0  0 
 10 32  1  0  0  0  0 
 10 33  1  0  0  0  0 
 11 34  1  0  0  0  0 
 11 35  1  0  0  0  0 
 11 36  1  0  0  0  0 
 12 37  1  0  0  0  0 
 12 38  1  0  0  0  0 
 12 39  1  0  0  0  0 
 13 17  1  0  0  0  0 
 13 40  1  0  0  0  0 
 14 18  1  0  0  0  0 
 14 41  1  0  0  0  0 
 15 19  2  0  0  0  0 
 15 42  1  0  0  0  0 
 16 20  2  0  0  0  0 
 16 43  1  0  0  0  0 
 17 21  2  0  0  0  0 
 17 44  1  0  0  0  0 
 18 22  2  0  0  0  0 
 18 45  1  0  0  0  0 
 19 21  1  0  0  0  0 
 19 46  1  0  0  0  0 
 20 22  1  0  0  0  0 
 20 47  1  0  0  0  0 
 21 49  1  0  0  0  0 
 22 48  1  0  0  0  0 
M  END
> <cdk:Title>
68778

> <cdk:Remark>
null

> <PUBCHEM_COMPOUND_CID>
68778

> <PUBCHEM_COMPOUND_CANONICALIZED>
1

> <PUBCHEM_CACTVS_COMPLEXITY>
313

> <PUBCHEM_CACTVS_HBOND_ACCEPTOR>
1

> <PUBCHEM_CACTVS_HBOND_DONOR>
0

> <PUBCHEM_CACTVS_ROTATABLE_BOND>
3

> <PUBCHEM_CACTVS_SUBSKEYS>
AAADceB6AAAAAAAAAAAAAAAAAAAAAAAAAAA8YIAAAAAAAAABQAAAHAAAAAAADojBGAQyAIMAAACAAiBCAAACAAAgAAAIiAAIAIgIICKAkRCEIAAggACIiAcQgMAPgAAAAAAAAAAAAAAAAAAAAAAAAAAAAA==

> <PUBCHEM_IUPAC_OPENEYE_NAME>
1-tert-butyl-4,4-diphenyl-piperidine

> <PUBCHEM_IUPAC_CAS_NAME>
1-tert-butyl-4,4-diphenylpiperidine

> <PUBCHEM_IUPAC_NAME>
1-tert-butyl-4,4-diphenylpiperidine

> <PUBCHEM_IUPAC_SYSTEMATIC_NAME>
1-tert-butyl-4,4-diphenyl-piperidine

> <PUBCHEM_IUPAC_TRADITIONAL_NAME>
1-tert-butyl-4,4-diphenyl-piperidine

> <PUBCHEM_IUPAC_INCHI>
InChI=1S/C21H27N/c1-20(2,3)22-16-14-21(15-17-22,18-10-6-4-7-11-18)19-12-8-5-9-13-19/h4-13H,14-17H2,1-3H3

> <PUBCHEM_IUPAC_INCHIKEY>
QIHLUZAFSSMXHQ-UHFFFAOYSA-N

> <PUBCHEM_XLOGP3_AA>
5.2

> <PUBCHEM_EXACT_MASS>
293.21435

> <PUBCHEM_MOLECULAR_FORMULA>
C21H27N

> <PUBCHEM_MOLECULAR_WEIGHT>
293.44578

> <PUBCHEM_OPENEYE_CAN_SMILES>
CC(C)(C)N1CCC(CC1)(C2=CC=CC=C2)C3=CC=CC=C3

> <PUBCHEM_OPENEYE_ISO_SMILES>
CC(C)(C)N1CCC(CC1)(C2=CC=CC=C2)C3=CC=CC=C3

> <PUBCHEM_CACTVS_TPSA>
3.2

> <PUBCHEM_MONOISOTOPIC_WEIGHT>
293.21435

> <PUBCHEM_TOTAL_CHARGE>
0

> <PUBCHEM_HEAVY_ATOM_COUNT>
22

> <PUBCHEM_ATOM_DEF_STEREO_COUNT>
0

> <PUBCHEM_ATOM_UDEF_STEREO_COUNT>
0

> <PUBCHEM_BOND_DEF_STEREO_COUNT>
0

> <PUBCHEM_BOND_UDEF_STEREO_COUNT>
0

> <PUBCHEM_ISOTOPIC_ATOM_COUNT>
0

> <PUBCHEM_COMPONENT_COUNT>
1

> <PUBCHEM_CACTVS_TAUTO_COUNT>
1

> <PUBCHEM_COORDINATE_TYPE>
1
5
255

> <PUBCHEM_BONDANNOTATIONS>
13  17  8
14  18  8
15  19  8
16  20  8
17  21  8
18  22  8
19  21  8
20  22  8
8  14  8
8  16  8
9  13  8
9  15  8

> <DRUG_ID>
w218

> <DRUG_NAME>
Budipine

$$$$
2818
  CDK     0927151942
null
 42 45  0  0  0  0  0  0  0  0999 V2000
    8.7204   -1.4271    0.0000 Cl  0  0  0  0  0  0  0  0  0  0  0  0
    3.9491    0.3375    0.0000 N   0  0  0  0  0  0  0  0  0  0  0  0
    3.0814    2.1394    0.0000 N   0  0  0  0  0  0  0  0  0  0  0  0
    5.3830   -0.5635    0.0000 N   0  0  0  0  0  0  0  0  0  0  0  0
    4.8830   -2.7541    0.0000 N   0  0  0  0  0  0  0  0  0  0  0  0
    4.5125    1.1637    0.0000 C   0  0  0  0  0  0  0  0  0  0  0  0
    2.9519    0.4122    0.0000 C   0  0  0  0  0  0  0  0  0  0  0  0
    4.0786    2.0647    0.0000 C   0  0  0  0  0  0  0  0  0  0  0  0
    2.5180    1.3132    0.0000 C   0  0  0  0  0  0  0  0  0  0  0  0
    4.3830   -0.5635    0.0000 C   0  0  0  0  0  0  0  0  0  0  0  0
    3.7595   -1.3453    0.0000 C   0  0  0  0  0  0  0  0  0  0  0  0
    2.6475    3.0404    0.0000 C   0  0  0  0  0  0  0  0  0  0  0  0
    3.9820   -2.3202    0.0000 C   0  0  0  0  0  0  0  0  0  0  0  0
    6.0065   -1.3453    0.0000 C   0  0  0  0  0  0  0  0  0  0  0  0
    2.7690   -1.0230    0.0000 C   0  0  0  0  0  0  0  0  0  0  0  0
    5.7840   -2.3202    0.0000 C   0  0  0  0  0  0  0  0  0  0  0  0
    3.2295   -3.0404    0.0000 C   0  0  0  0  0  0  0  0  0  0  0  0
    6.9970   -1.0230    0.0000 C   0  0  0  0  0  0  0  0  0  0  0  0
    2.0000   -1.7255    0.0000 C   0  0  0  0  0  0  0  0  0  0  0  0
    2.2318   -2.7410    0.0000 C   0  0  0  0  0  0  0  0  0  0  0  0
    6.5365   -3.0404    0.0000 C   0  0  0  0  0  0  0  0  0  0  0  0
    7.7660   -1.7256    0.0000 C   0  0  0  0  0  0  0  0  0  0  0  0
    7.5342   -2.7411    0.0000 C   0  0  0  0  0  0  0  0  0  0  0  0
    4.9563    0.7308    0.0000 H   0  0  0  0  0  0  0  0  0  0  0  0
    5.0159    1.5257    0.0000 H   0  0  0  0  0  0  0  0  0  0  0  0
    2.3551    0.2443    0.0000 H   0  0  0  0  0  0  0  0  0  0  0  0
    3.0137   -0.2047    0.0000 H   0  0  0  0  0  0  0  0  0  0  0  0
    4.6754    2.2326    0.0000 H   0  0  0  0  0  0  0  0  0  0  0  0
    4.0168    2.6816    0.0000 H   0  0  0  0  0  0  0  0  0  0  0  0
    2.0742    1.7461    0.0000 H   0  0  0  0  0  0  0  0  0  0  0  0
    2.0146    0.9513    0.0000 H   0  0  0  0  0  0  0  0  0  0  0  0
    3.2061    3.3094    0.0000 H   0  0  0  0  0  0  0  0  0  0  0  0
    2.3785    3.5990    0.0000 H   0  0  0  0  0  0  0  0  0  0  0  0
    2.0889    2.7714    0.0000 H   0  0  0  0  0  0  0  0  0  0  0  0
    5.6520   -0.0049    0.0000 H   0  0  0  0  0  0  0  0  0  0  0  0
    2.6380   -0.4169    0.0000 H   0  0  0  0  0  0  0  0  0  0  0  0
    3.3744   -3.6432    0.0000 H   0  0  0  0  0  0  0  0  0  0  0  0
    7.1280   -0.4170    0.0000 H   0  0  0  0  0  0  0  0  0  0  0  0
    1.4083   -1.5405    0.0000 H   0  0  0  0  0  0  0  0  0  0  0  0
    6.3916   -3.6432    0.0000 H   0  0  0  0  0  0  0  0  0  0  0  0
    1.7789   -3.1645    0.0000 H   0  0  0  0  0  0  0  0  0  0  0  0
    7.9871   -3.1645    0.0000 H   0  0  0  0  0  0  0  0  0  0  0  0
  1 22  1  0  0  0  0 
  2  6  1  0  0  0  0 
  2  7  1  0  0  0  0 
  2 10  1  0  0  0  0 
  3  8  1  0  0  0  0 
  3  9  1  0  0  0  0 
  3 12  1  0  0  0  0 
  4 10  1  0  0  0  0 
  4 14  1  0  0  0  0 
  4 35  1  0  0  0  0 
  5 13  2  0  0  0  0 
  5 16  1  0  0  0  0 
  6  8  1  0  0  0  0 
  6 24  1  0  0  0  0 
  6 25  1  0  0  0  0 
  7  9  1  0  0  0  0 
  7 26  1  0  0  0  0 
  7 27  1  0  0  0  0 
  8 28  1  0  0  0  0 
  8 29  1  0  0  0  0 
  9 30  1  0  0  0  0 
  9 31  1  0  0  0  0 
 10 11  2  0  0  0  0 
 11 13  1  0  0  0  0 
 11 15  1  0  0  0  0 
 12 32  1  0  0  0  0 
 12 33  1  0  0  0  0 
 12 34  1  0  0  0  0 
 13 17  1  0  0  0  0 
 14 16  2  0  0  0  0 
 14 18  1  0  0  0  0 
 15 19  2  0  0  0  0 
 15 36  1  0  0  0  0 
 16 21  1  0  0  0  0 
 17 20  2  0  0  0  0 
 17 37  1  0  0  0  0 
 18 22  2  0  0  0  0 
 18 38  1  0  0  0  0 
 19 20  1  0  0  0  0 
 19 39  1  0  0  0  0 
 20 41  1  0  0  0  0 
 21 23  2  0  0  0  0 
 21 40  1  0  0  0  0 
 22 23  1  0  0  0  0 
 23 42  1  0  0  0  0 
M  END
> <cdk:Title>
2818

> <cdk:Remark>
null

> <PUBCHEM_COMPOUND_CID>
2818

> <PUBCHEM_COMPOUND_CANONICALIZED>
1

> <PUBCHEM_CACTVS_COMPLEXITY>
584

> <PUBCHEM_CACTVS_HBOND_ACCEPTOR>
4

> <PUBCHEM_CACTVS_HBOND_DONOR>
1

> <PUBCHEM_CACTVS_ROTATABLE_BOND>
1

> <PUBCHEM_CACTVS_SUBSKEYS>
AAADceB7gAAEAAAAAAAAAAAAAAAAAAAAAAA8QIAABAAAAAABAAAAHAIQAAAADArBECQzwIPAAACgAyRiRACCAAAhBwAIiAA4dpiIYCLBk5GUIAhokALIyCcQAAAAAABAAAIAACAAAIAABAAAQAAAAAAAAA==

> <PUBCHEM_IUPAC_OPENEYE_NAME>
3-chloro-6-(4-methylpiperazin-1-yl)-5H-benzo[b][1,4]benzodiazepine

> <PUBCHEM_IUPAC_CAS_NAME>
3-chloro-6-(4-methyl-1-piperazinyl)-5H-benzo[b][1,4]benzodiazepine

> <PUBCHEM_IUPAC_NAME>
3-chloro-6-(4-methylpiperazin-1-yl)-5H-benzo[b][1,4]benzodiazepine

> <PUBCHEM_IUPAC_SYSTEMATIC_NAME>
3-chloranyl-6-(4-methylpiperazin-1-yl)-5H-benzo[b][1,4]benzodiazepine

> <PUBCHEM_IUPAC_TRADITIONAL_NAME>
3-chloro-6-(4-methylpiperazino)-5H-benzo[b][1,4]benzodiazepine

> <PUBCHEM_IUPAC_INCHI>
InChI=1S/C18H19ClN4/c1-22-8-10-23(11-9-22)18-14-4-2-3-5-15(14)20-16-7-6-13(19)12-17(16)21-18/h2-7,12,21H,8-11H2,1H3

> <PUBCHEM_IUPAC_INCHIKEY>
ZUXABONWMNSFBN-UHFFFAOYSA-N

> <PUBCHEM_XLOGP3>
3.2

> <PUBCHEM_EXACT_MASS>
326.129824

> <PUBCHEM_MOLECULAR_FORMULA>
C18H19ClN4

> <PUBCHEM_MOLECULAR_WEIGHT>
326.82326

> <PUBCHEM_OPENEYE_CAN_SMILES>
CN1CCN(CC1)C2=C3C=CC=CC3=NC4=C(N2)C=C(C=C4)Cl

> <PUBCHEM_OPENEYE_ISO_SMILES>
CN1CCN(CC1)C2=C3C=CC=CC3=NC4=C(N2)C=C(C=C4)Cl

> <PUBCHEM_CACTVS_TPSA>
30.9

> <PUBCHEM_MONOISOTOPIC_WEIGHT>
326.129824

> <PUBCHEM_TOTAL_CHARGE>
0

> <PUBCHEM_HEAVY_ATOM_COUNT>
23

> <PUBCHEM_ATOM_DEF_STEREO_COUNT>
0

> <PUBCHEM_ATOM_UDEF_STEREO_COUNT>
0

> <PUBCHEM_BOND_DEF_STEREO_COUNT>
0

> <PUBCHEM_BOND_UDEF_STEREO_COUNT>
0

> <PUBCHEM_ISOTOPIC_ATOM_COUNT>
0

> <PUBCHEM_COMPONENT_COUNT>
1

> <PUBCHEM_CACTVS_TAUTO_COUNT>
5

> <PUBCHEM_COORDINATE_TYPE>
1
5
255

> <PUBCHEM_BONDANNOTATIONS>
11  13  8
11  15  8
13  17  8
14  16  8
14  18  8
15  19  8
16  21  8
17  20  8
18  22  8
19  20  8
21  23  8
22  23  8

> <DRUG_ID>
w219

> <DRUG_NAME>
Clozapine

$$$$
5917
  CDK     0927151942
null
 20 21  0  0  0  0  0  0  0  0999 V2000
    4.1881    0.5039    0.0000 N   0  0  0  0  0  0  0  0  0  0  0  0
    5.1328    0.8133    0.0000 N   0  0  0  0  0  0  0  0  0  0  0  0
    5.1408   -0.7961    0.0000 N   0  0  0  0  0  0  0  0  0  0  0  0
    5.7204    0.0115    0.0000 N   0  0  0  0  0  0  0  0  0  0  0  0
    2.0000   -0.0070    0.0000 C   0  0  0  0  0  0  0  0  0  0  0  0
    2.4294    0.8961    0.0000 C   0  0  0  0  0  0  0  0  0  0  0  0
    2.4384   -0.9058    0.0000 C   0  0  0  0  0  0  0  0  0  0  0  0
    3.4032    1.1235    0.0000 C   0  0  0  0  0  0  0  0  0  0  0  0
    3.4144   -1.1235    0.0000 C   0  0  0  0  0  0  0  0  0  0  0  0
    4.1931   -0.4961    0.0000 C   0  0  0  0  0  0  0  0  0  0  0  0
    1.5133    0.3771    0.0000 H   0  0  0  0  0  0  0  0  0  0  0  0
    1.5172   -0.3960    0.0000 H   0  0  0  0  0  0  0  0  0  0  0  0
    2.4263    1.5161    0.0000 H   0  0  0  0  0  0  0  0  0  0  0  0
    1.8242    1.0310    0.0000 H   0  0  0  0  0  0  0  0  0  0  0  0
    1.8346   -1.0468    0.0000 H   0  0  0  0  0  0  0  0  0  0  0  0
    2.4415   -1.5258    0.0000 H   0  0  0  0  0  0  0  0  0  0  0  0
    3.8860    1.5124    0.0000 H   0  0  0  0  0  0  0  0  0  0  0  0
    3.1314    1.6807    0.0000 H   0  0  0  0  0  0  0  0  0  0  0  0
    3.1482   -1.6834    0.0000 H   0  0  0  0  0  0  0  0  0  0  0  0
    3.9010   -1.5076    0.0000 H   0  0  0  0  0  0  0  0  0  0  0  0
  1  2  1  0  0  0  0 
  1  8  1  0  0  0  0 
  1 10  1  0  0  0  0 
  2  4  2  0  0  0  0 
  3  4  1  0  0  0  0 
  3 10  2  0  0  0  0 
  5  6  1  0  0  0  0 
  5  7  1  0  0  0  0 
  5 11  1  0  0  0  0 
  5 12  1  0  0  0  0 
  6  8  1  0  0  0  0 
  6 13  1  0  0  0  0 
  6 14  1  0  0  0  0 
  7  9  1  0  0  0  0 
  7 15  1  0  0  0  0 
  7 16  1  0  0  0  0 
  8 17  1  0  0  0  0 
  8 18  1  0  0  0  0 
  9 10  1  0  0  0  0 
  9 19  1  0  0  0  0 
  9 20  1  0  0  0  0 
M  END
> <cdk:Title>
5917

> <cdk:Remark>
null

> <PUBCHEM_COMPOUND_CID>
5917

> <PUBCHEM_COMPOUND_CANONICALIZED>
1

> <PUBCHEM_CACTVS_COMPLEXITY>
116

> <PUBCHEM_CACTVS_HBOND_ACCEPTOR>
3

> <PUBCHEM_CACTVS_HBOND_DONOR>
0

> <PUBCHEM_CACTVS_ROTATABLE_BOND>
0

> <PUBCHEM_CACTVS_SUBSKEYS>
AAADccBjgAAAAAAAAAAAAAAAAAAAAWAAAAAAAAAABYAAAACxgAAAHAAIAAAACADBAwQBEAYIAAAiAAIgJAAAAAMAgIAVQAA4AACAAAIAiAAEAAAAAAKAAAEQAAAAAAAAAAAAAAAAAAAAAAAAAAAAAAAAAA==

> <PUBCHEM_IUPAC_OPENEYE_NAME>
6,7,8,9-tetrahydro-5H-tetrazolo[1,5-a]azepine

> <PUBCHEM_IUPAC_CAS_NAME>
6,7,8,9-tetrahydro-5H-tetrazolo[1,5-a]azepine

> <PUBCHEM_IUPAC_NAME>
6,7,8,9-tetrahydro-5H-tetrazolo[1,5-a]azepine

> <PUBCHEM_IUPAC_SYSTEMATIC_NAME>
6,7,8,9-tetrahydro-5H-[1,2,3,4]tetrazolo[1,5-a]azepine

> <PUBCHEM_IUPAC_TRADITIONAL_NAME>
6,7,8,9-tetrahydro-5H-tetrazol[1,5-a]azepine

> <PUBCHEM_IUPAC_INCHI>
InChI=1S/C6H10N4/c1-2-4-6-7-8-9-10(6)5-3-1/h1-5H2

> <PUBCHEM_IUPAC_INCHIKEY>
CWRVKFFCRWGWCS-UHFFFAOYSA-N

> <PUBCHEM_XLOGP3>
0.1

> <PUBCHEM_EXACT_MASS>
138.090546

> <PUBCHEM_MOLECULAR_FORMULA>
C6H10N4

> <PUBCHEM_MOLECULAR_WEIGHT>
138.1704

> <PUBCHEM_OPENEYE_CAN_SMILES>
C1CCC2=NN=NN2CC1

> <PUBCHEM_OPENEYE_ISO_SMILES>
C1CCC2=NN=NN2CC1

> <PUBCHEM_CACTVS_TPSA>
43.6

> <PUBCHEM_MONOISOTOPIC_WEIGHT>
138.090546

> <PUBCHEM_TOTAL_CHARGE>
0

> <PUBCHEM_HEAVY_ATOM_COUNT>
10

> <PUBCHEM_ATOM_DEF_STEREO_COUNT>
0

> <PUBCHEM_ATOM_UDEF_STEREO_COUNT>
0

> <PUBCHEM_BOND_DEF_STEREO_COUNT>
0

> <PUBCHEM_BOND_UDEF_STEREO_COUNT>
0

> <PUBCHEM_ISOTOPIC_ATOM_COUNT>
0

> <PUBCHEM_COMPONENT_COUNT>
1

> <PUBCHEM_CACTVS_TAUTO_COUNT>
1

> <PUBCHEM_COORDINATE_TYPE>
1
5
255

> <PUBCHEM_BONDANNOTATIONS>
1  10  8
1  2  8
2  4  8
3  10  8
3  4  8

> <DRUG_ID>
w22

> <DRUG_NAME>
Pentylenetetrazol

$$$$
47979
  CDK     0927151942
null
 51 52  0  0  0  0  0  0  0  0999 V2000
    6.3301   -3.5955    0.0000 S   0  0  0  0  0  0  0  0  0  0  0  0
    3.7320   -0.0955    0.0000 O   0  0  0  0  0  0  0  0  0  0  0  0
    2.8660   -1.5955    0.0000 O   0  0  0  0  0  0  0  0  0  0  0  0
    2.8660   -3.5955    0.0000 O   0  0  0  0  0  0  0  0  0  0  0  0
    5.8301   -4.4615    0.0000 O   0  0  0  0  0  0  0  0  0  0  0  0
    6.8301   -2.7294    0.0000 O   0  0  0  0  0  0  0  0  0  0  0  0
    6.4347    2.3991    0.0000 N   0  0  3  0  0  0  0  0  0  0  0  0
    5.4641   -0.0955    0.0000 N   0  0  0  0  0  0  0  0  0  0  0  0
    7.1962   -4.0955    0.0000 N   0  0  0  0  0  0  0  0  0  0  0  0
    6.3301    1.4045    0.0000 C   0  0  3  0  0  0  0  0  0  0  0  0
    7.2437    0.9978    0.0000 C   0  0  0  0  0  0  0  0  0  0  0  0
    7.9128    1.7409    0.0000 C   0  0  0  0  0  0  0  0  0  0  0  0
    7.4128    2.6070    0.0000 C   0  0  0  0  0  0  0  0  0  0  0  0
    5.4641    0.9045    0.0000 C   0  0  0  0  0  0  0  0  0  0  0  0
    5.6915    3.0682    0.0000 C   0  0  0  0  0  0  0  0  0  0  0  0
    5.8994    4.0463    0.0000 C   0  0  0  0  0  0  0  0  0  0  0  0
    4.5981   -0.5955    0.0000 C   0  0  0  0  0  0  0  0  0  0  0  0
    4.5981   -1.5955    0.0000 C   0  0  0  0  0  0  0  0  0  0  0  0
    5.1563    4.7155    0.0000 C   0  0  0  0  0  0  0  0  0  0  0  0
    3.7320   -2.0955    0.0000 C   0  0  0  0  0  0  0  0  0  0  0  0
    5.4641   -2.0955    0.0000 C   0  0  0  0  0  0  0  0  0  0  0  0
    5.4641   -3.0955    0.0000 C   0  0  0  0  0  0  0  0  0  0  0  0
    3.7320   -3.0955    0.0000 C   0  0  0  0  0  0  0  0  0  0  0  0
    4.5981   -3.5955    0.0000 C   0  0  0  0  0  0  0  0  0  0  0  0
    2.0000   -2.0955    0.0000 C   0  0  0  0  0  0  0  0  0  0  0  0
    2.8660   -4.5955    0.0000 C   0  0  0  0  0  0  0  0  0  0  0  0
    5.6173    1.8675    0.0000 H   0  0  0  0  0  0  0  0  0  0  0  0
    6.9337    0.4609    0.0000 H   0  0  0  0  0  0  0  0  0  0  0  0
    7.7453    0.6334    0.0000 H   0  0  0  0  0  0  0  0  0  0  0  0
    8.3277    1.2802    0.0000 H   0  0  0  0  0  0  0  0  0  0  0  0
    8.4144    2.1054    0.0000 H   0  0  0  0  0  0  0  0  0  0  0  0
    7.9792    2.8591    0.0000 H   0  0  0  0  0  0  0  0  0  0  0  0
    7.2212    3.1966    0.0000 H   0  0  0  0  0  0  0  0  0  0  0  0
    5.2520    1.4871    0.0000 H   0  0  0  0  0  0  0  0  0  0  0  0
    4.8535    0.7969    0.0000 H   0  0  0  0  0  0  0  0  0  0  0  0
    5.1167    3.3004    0.0000 H   0  0  0  0  0  0  0  0  0  0  0  0
    5.3630    2.5424    0.0000 H   0  0  0  0  0  0  0  0  0  0  0  0
    6.0010   -0.4055    0.0000 H   0  0  0  0  0  0  0  0  0  0  0  0
    6.4891    4.2379    0.0000 H   0  0  0  0  0  0  0  0  0  0  0  0
    5.2852    5.3219    0.0000 H   0  0  0  0  0  0  0  0  0  0  0  0
    4.5666    4.5239    0.0000 H   0  0  0  0  0  0  0  0  0  0  0  0
    6.0010   -1.7855    0.0000 H   0  0  0  0  0  0  0  0  0  0  0  0
    4.5981   -4.2155    0.0000 H   0  0  0  0  0  0  0  0  0  0  0  0
    7.1962   -4.7155    0.0000 H   0  0  0  0  0  0  0  0  0  0  0  0
    7.7331   -3.7855    0.0000 H   0  0  0  0  0  0  0  0  0  0  0  0
    1.6900   -1.5585    0.0000 H   0  0  0  0  0  0  0  0  0  0  0  0
    1.4631   -2.4055    0.0000 H   0  0  0  0  0  0  0  0  0  0  0  0
    2.3100   -2.6324    0.0000 H   0  0  0  0  0  0  0  0  0  0  0  0
    2.2460   -4.5955    0.0000 H   0  0  0  0  0  0  0  0  0  0  0  0
    2.8660   -5.2155    0.0000 H   0  0  0  0  0  0  0  0  0  0  0  0
    3.4860   -4.5955    0.0000 H   0  0  0  0  0  0  0  0  0  0  0  0
  1  5  2  0  0  0  0 
  1  6  2  0  0  0  0 
  1  9  1  0  0  0  0 
  1 22  1  0  0  0  0 
  2 17  2  0  0  0  0 
  3 20  1  0  0  0  0 
  3 25  1  0  0  0  0 
  4 23  1  0  0  0  0 
  4 26  1  0  0  0  0 
  7 10  1  0  0  0  0 
  7 13  1  0  0  0  0 
  7 15  1  0  0  0  0 
  8 14  1  0  0  0  0 
  8 17  1  0  0  0  0 
  8 38  1  0  0  0  0 
  9 44  1  0  0  0  0 
  9 45  1  0  0  0  0 
 10 11  1  0  0  0  0 
 10 14  1  0  0  0  0 
 10 27  1  0  0  0  0 
 11 12  1  0  0  0  0 
 11 28  1  0  0  0  0 
 11 29  1  0  0  0  0 
 12 13  1  0  0  0  0 
 12 30  1  0  0  0  0 
 12 31  1  0  0  0  0 
 13 32  1  0  0  0  0 
 13 33  1  0  0  0  0 
 14 34  1  0  0  0  0 
 14 35  1  0  0  0  0 
 15 16  1  0  0  0  0 
 15 36  1  0  0  0  0 
 15 37  1  0  0  0  0 
 16 19  2  0  0  0  0 
 16 39  1  0  0  0  0 
 17 18  1  0  0  0  0 
 18 20  1  0  0  0  0 
 18 21  2  0  0  0  0 
 19 40  1  0  0  0  0 
 19 41  1  0  0  0  0 
 20 23  2  0  0  0  0 
 21 22  1  0  0  0  0 
 21 42  1  0  0  0  0 
 22 24  2  0  0  0  0 
 23 24  1  0  0  0  0 
 24 43  1  0  0  0  0 
 25 46  1  0  0  0  0 
 25 47  1  0  0  0  0 
 25 48  1  0  0  0  0 
 26 49  1  0  0  0  0 
 26 50  1  0  0  0  0 
 26 51  1  0  0  0  0 
M  END
> <cdk:Title>
47979

> <cdk:Remark>
null

> <PUBCHEM_COMPOUND_CID>
47979

> <PUBCHEM_COMPOUND_CANONICALIZED>
1

> <PUBCHEM_CACTVS_COMPLEXITY>
592

> <PUBCHEM_CACTVS_HBOND_ACCEPTOR>
7

> <PUBCHEM_CACTVS_HBOND_DONOR>
2

> <PUBCHEM_CACTVS_ROTATABLE_BOND>
8

> <PUBCHEM_CACTVS_SUBSKEYS>
AAADceB7OABAAAAAAAAAAAAAAAAAAWAAAAAwAAAAAAAAAAABAAAAHgQQQAAADCzB2AYyB4PABAKIAiFSEHDCCBAkIAAIiJkOjMgNZjaEtRuUMWpm9hGKqYe6yDCOAIABhAAIQAABAAMIABCAAAAAAAAAAA==

> <PUBCHEM_IUPAC_OPENEYE_NAME>
N-[(1-allylpyrrolidin-2-yl)methyl]-2,3-dimethoxy-5-sulfamoyl-benzamide

> <PUBCHEM_IUPAC_CAS_NAME>
2,3-dimethoxy-N-[(1-prop-2-enyl-2-pyrrolidinyl)methyl]-5-sulfamoylbenzamide

> <PUBCHEM_IUPAC_NAME>
2,3-dimethoxy-N-[(1-prop-2-enylpyrrolidin-2-yl)methyl]-5-sulfamoylbenzamide

> <PUBCHEM_IUPAC_SYSTEMATIC_NAME>
2,3-dimethoxy-N-[(1-prop-2-enylpyrrolidin-2-yl)methyl]-5-sulfamoyl-benzamide

> <PUBCHEM_IUPAC_TRADITIONAL_NAME>
N-[(1-allylpyrrolidin-2-yl)methyl]-2,3-dimethoxy-5-sulfamoyl-benzamide

> <PUBCHEM_IUPAC_INCHI>
InChI=1S/C17H25N3O5S/c1-4-7-20-8-5-6-12(20)11-19-17(21)14-9-13(26(18,22)23)10-15(24-2)16(14)25-3/h4,9-10,12H,1,5-8,11H2,2-3H3,(H,19,21)(H2,18,22,23)

> <PUBCHEM_IUPAC_INCHIKEY>
RYJXBGGBZJGVQF-UHFFFAOYSA-N

> <PUBCHEM_XLOGP3>
0.8

> <PUBCHEM_EXACT_MASS>
383.151492

> <PUBCHEM_MOLECULAR_FORMULA>
C17H25N3O5S

> <PUBCHEM_MOLECULAR_WEIGHT>
383.4625

> <PUBCHEM_OPENEYE_CAN_SMILES>
COC1=C(C(=CC(=C1)S(=O)(=O)N)C(=O)NCC2CCCN2CC=C)OC

> <PUBCHEM_OPENEYE_ISO_SMILES>
COC1=C(C(=CC(=C1)S(=O)(=O)N)C(=O)NCC2CCCN2CC=C)OC

> <PUBCHEM_CACTVS_TPSA>
119

> <PUBCHEM_MONOISOTOPIC_WEIGHT>
383.151492

> <PUBCHEM_TOTAL_CHARGE>
0

> <PUBCHEM_HEAVY_ATOM_COUNT>
26

> <PUBCHEM_ATOM_DEF_STEREO_COUNT>
0

> <PUBCHEM_ATOM_UDEF_STEREO_COUNT>
1

> <PUBCHEM_BOND_DEF_STEREO_COUNT>
0

> <PUBCHEM_BOND_UDEF_STEREO_COUNT>
0

> <PUBCHEM_ISOTOPIC_ATOM_COUNT>
0

> <PUBCHEM_COMPONENT_COUNT>
1

> <PUBCHEM_CACTVS_TAUTO_COUNT>
2

> <PUBCHEM_COORDINATE_TYPE>
1
5
255

> <PUBCHEM_BONDANNOTATIONS>
10  27  3
18  20  8
18  21  8
20  23  8
21  22  8
22  24  8
23  24  8

> <DRUG_ID>
w220

> <DRUG_NAME>
Veralipride

$$$$
2809
  CDK     0927151942
null
 33 35  0  0  0  0  0  0  0  0999 V2000
    8.9747   -0.1360    0.0000 Cl  0  0  0  0  0  0  0  0  0  0  0  0
    3.9304   -2.8430    0.0000 O   0  0  0  0  0  0  0  0  0  0  0  0
    2.6200   -0.2941    0.0000 O   0  0  0  0  0  0  0  0  0  0  0  0
    2.6200   -2.0262    0.0000 O   0  0  0  0  0  0  0  0  0  0  0  0
    5.5288   -2.2836    0.0000 N   0  0  0  0  0  0  0  0  0  0  0  0
    4.5539   -0.2592    0.0000 N   0  0  0  0  0  0  0  0  0  0  0  0
    6.3106   -0.6602    0.0000 C   0  0  0  0  0  0  0  0  0  0  0  0
    5.5288   -0.0367    0.0000 C   0  0  0  0  0  0  0  0  0  0  0  0
    6.3106   -1.6602    0.0000 C   0  0  0  0  0  0  0  0  0  0  0  0
    4.1200   -1.1602    0.0000 C   0  0  3  0  0  0  0  0  0  0  0  0
    5.7513    0.9383    0.0000 C   0  0  0  0  0  0  0  0  0  0  0  0
    4.5539   -2.0611    0.0000 C   0  0  0  0  0  0  0  0  0  0  0  0
    7.2046   -0.1255    0.0000 C   0  0  0  0  0  0  0  0  0  0  0  0
    7.2046   -2.1948    0.0000 C   0  0  0  0  0  0  0  0  0  0  0  0
    8.1106   -0.6393    0.0000 C   0  0  0  0  0  0  0  0  0  0  0  0
    8.1106   -1.6810    0.0000 C   0  0  0  0  0  0  0  0  0  0  0  0
    6.7069    1.2330    0.0000 C   0  0  0  0  0  0  0  0  0  0  0  0
    5.0183    1.6184    0.0000 C   0  0  0  0  0  0  0  0  0  0  0  0
    3.1200   -1.1602    0.0000 C   0  0  0  0  0  0  0  0  0  0  0  0
    6.9294    2.2079    0.0000 C   0  0  0  0  0  0  0  0  0  0  0  0
    5.2408    2.5934    0.0000 C   0  0  0  0  0  0  0  0  0  0  0  0
    6.1964    2.8881    0.0000 C   0  0  0  0  0  0  0  0  0  0  0  0
    3.7901   -0.6352    0.0000 H   0  0  0  0  0  0  0  0  0  0  0  0
    5.6668   -2.8881    0.0000 H   0  0  0  0  0  0  0  0  0  0  0  0
    7.1974    0.4945    0.0000 H   0  0  0  0  0  0  0  0  0  0  0  0
    7.1974   -2.8148    0.0000 H   0  0  0  0  0  0  0  0  0  0  0  0
    8.6464   -1.9930    0.0000 H   0  0  0  0  0  0  0  0  0  0  0  0
    7.1614    0.8113    0.0000 H   0  0  0  0  0  0  0  0  0  0  0  0
    4.4258    1.4357    0.0000 H   0  0  0  0  0  0  0  0  0  0  0  0
    7.5219    2.3907    0.0000 H   0  0  0  0  0  0  0  0  0  0  0  0
    4.7863    3.0151    0.0000 H   0  0  0  0  0  0  0  0  0  0  0  0
    6.3343    3.4926    0.0000 H   0  0  0  0  0  0  0  0  0  0  0  0
    2.0000   -0.2941    0.0000 H   0  0  0  0  0  0  0  0  0  0  0  0
  1 15  1  0  0  0  0 
  2 12  2  0  0  0  0 
  3 19  1  0  0  0  0 
  3 33  1  0  0  0  0 
  4 19  2  0  0  0  0 
  5  9  1  0  0  0  0 
  5 12  1  0  0  0  0 
  5 24  1  0  0  0  0 
  6  8  2  0  0  0  0 
  6 10  1  0  0  0  0 
  7  8  1  0  0  0  0 
  7  9  2  0  0  0  0 
  7 13  1  0  0  0  0 
  8 11  1  0  0  0  0 
  9 14  1  0  0  0  0 
 10 12  1  0  0  0  0 
 10 19  1  0  0  0  0 
 10 23  1  0  0  0  0 
 11 17  2  0  0  0  0 
 11 18  1  0  0  0  0 
 13 15  2  0  0  0  0 
 13 25  1  0  0  0  0 
 14 16  2  0  0  0  0 
 14 26  1  0  0  0  0 
 15 16  1  0  0  0  0 
 16 27  1  0  0  0  0 
 17 20  1  0  0  0  0 
 17 28  1  0  0  0  0 
 18 21  2  0  0  0  0 
 18 29  1  0  0  0  0 
 20 22  2  0  0  0  0 
 20 30  1  0  0  0  0 
 21 22  1  0  0  0  0 
 21 31  1  0  0  0  0 
 22 32  1  0  0  0  0 
M  END
> <cdk:Title>
2809

> <cdk:Remark>
null

> <PUBCHEM_COMPOUND_CID>
2809

> <PUBCHEM_COMPOUND_CANONICALIZED>
1

> <PUBCHEM_CACTVS_COMPLEXITY>
488

> <PUBCHEM_CACTVS_HBOND_ACCEPTOR>
4

> <PUBCHEM_CACTVS_HBOND_DONOR>
2

> <PUBCHEM_CACTVS_ROTATABLE_BOND>
2

> <PUBCHEM_CACTVS_SUBSKEYS>
AAADccB7MAAEAAAAAAAAAAAAAAAAAAAAAAAwYAAABAAAAAABQAAAHgIQCAAADCrBmCQwyILAAgCoAyXyXACCAAAhBwAIiAGgZpgKYK7Jk5GUYAhitADIyAcQgMAOAABAIAACAAAAAIBAAAQAAAAAAAAAAA==

> <PUBCHEM_IUPAC_OPENEYE_NAME>
7-chloro-2-oxo-5-phenyl-1,3-dihydro-1,4-benzodiazepine-3-carboxylic acid

> <PUBCHEM_IUPAC_CAS_NAME>
7-chloro-2-oxo-5-phenyl-1,3-dihydro-1,4-benzodiazepine-3-carboxylic acid

> <PUBCHEM_IUPAC_NAME>
7-chloro-2-oxo-5-phenyl-1,3-dihydro-1,4-benzodiazepine-3-carboxylic acid

> <PUBCHEM_IUPAC_SYSTEMATIC_NAME>
7-chloranyl-2-oxidanylidene-5-phenyl-1,3-dihydro-1,4-benzodiazepine-3-carboxylic acid

> <PUBCHEM_IUPAC_TRADITIONAL_NAME>
7-chloro-2-keto-5-phenyl-1,3-dihydro-1,4-benzodiazepine-3-carboxylic acid

> <PUBCHEM_IUPAC_INCHI>
InChI=1S/C16H11ClN2O3/c17-10-6-7-12-11(8-10)13(9-4-2-1-3-5-9)19-14(16(21)22)15(20)18-12/h1-8,14H,(H,18,20)(H,21,22)

> <PUBCHEM_IUPAC_INCHIKEY>
XDDJGVMJFWAHJX-UHFFFAOYSA-N

> <PUBCHEM_XLOGP3>
3.3

> <PUBCHEM_EXACT_MASS>
314.04582

> <PUBCHEM_MOLECULAR_FORMULA>
C16H11ClN2O3

> <PUBCHEM_MOLECULAR_WEIGHT>
314.72314

> <PUBCHEM_OPENEYE_CAN_SMILES>
C1=CC=C(C=C1)C2=NC(C(=O)NC3=C2C=C(C=C3)Cl)C(=O)O

> <PUBCHEM_OPENEYE_ISO_SMILES>
C1=CC=C(C=C1)C2=NC(C(=O)NC3=C2C=C(C=C3)Cl)C(=O)O

> <PUBCHEM_CACTVS_TPSA>
78.8

> <PUBCHEM_MONOISOTOPIC_WEIGHT>
314.04582

> <PUBCHEM_TOTAL_CHARGE>
0

> <PUBCHEM_HEAVY_ATOM_COUNT>
22

> <PUBCHEM_ATOM_DEF_STEREO_COUNT>
0

> <PUBCHEM_ATOM_UDEF_STEREO_COUNT>
1

> <PUBCHEM_BOND_DEF_STEREO_COUNT>
0

> <PUBCHEM_BOND_UDEF_STEREO_COUNT>
0

> <PUBCHEM_ISOTOPIC_ATOM_COUNT>
0

> <PUBCHEM_COMPONENT_COUNT>
1

> <PUBCHEM_CACTVS_TAUTO_COUNT>
14

> <PUBCHEM_COORDINATE_TYPE>
1
5
255

> <PUBCHEM_BONDANNOTATIONS>
10  19  3
11  17  8
11  18  8
13  15  8
14  16  8
15  16  8
17  20  8
18  21  8
20  22  8
21  22  8
7  13  8
7  9  8
9  14  8

> <DRUG_ID>
w221

> <DRUG_NAME>
Clorazepate

$$$$
37367
  CDK     0927151942
null
 44 46  0  0  0  0  0  0  0  0999 V2000
    9.8547    0.0492    0.0000 Cl  0  0  0  0  0  0  0  0  0  0  0  0
    4.0000   -0.9749    0.0000 O   0  0  0  0  0  0  0  0  0  0  0  0
    4.8104   -2.6577    0.0000 O   0  0  0  0  0  0  0  0  0  0  0  0
    4.0000    0.7571    0.0000 O   0  0  0  0  0  0  0  0  0  0  0  0
    6.4088   -2.0984    0.0000 N   0  0  0  0  0  0  0  0  0  0  0  0
    5.4339   -0.0740    0.0000 N   0  0  0  0  0  0  0  0  0  0  0  0
    2.5000   -0.1089    0.0000 N   0  0  0  0  0  0  0  0  0  0  0  0
    7.1906   -1.4749    0.0000 C   0  0  0  0  0  0  0  0  0  0  0  0
    7.1906   -0.4749    0.0000 C   0  0  0  0  0  0  0  0  0  0  0  0
    6.4088    0.1486    0.0000 C   0  0  0  0  0  0  0  0  0  0  0  0
    5.0000   -0.9749    0.0000 C   0  0  3  0  0  0  0  0  0  0  0  0
    5.4339   -1.8759    0.0000 C   0  0  0  0  0  0  0  0  0  0  0  0
    6.6313    1.1235    0.0000 C   0  0  0  0  0  0  0  0  0  0  0  0
    8.0846   -2.0096    0.0000 C   0  0  0  0  0  0  0  0  0  0  0  0
    8.0846    0.0597    0.0000 C   0  0  0  0  0  0  0  0  0  0  0  0
    6.6313   -3.0734    0.0000 C   0  0  0  0  0  0  0  0  0  0  0  0
    8.9906   -1.4957    0.0000 C   0  0  0  0  0  0  0  0  0  0  0  0
    8.9906   -0.4541    0.0000 C   0  0  0  0  0  0  0  0  0  0  0  0
    7.5869    1.4182    0.0000 C   0  0  0  0  0  0  0  0  0  0  0  0
    5.8983    1.8037    0.0000 C   0  0  0  0  0  0  0  0  0  0  0  0
    7.8094    2.3932    0.0000 C   0  0  0  0  0  0  0  0  0  0  0  0
    6.1208    2.7786    0.0000 C   0  0  0  0  0  0  0  0  0  0  0  0
    3.5000   -0.1089    0.0000 C   0  0  0  0  0  0  0  0  0  0  0  0
    7.0764    3.0734    0.0000 C   0  0  0  0  0  0  0  0  0  0  0  0
    2.0000    0.7571    0.0000 C   0  0  0  0  0  0  0  0  0  0  0  0
    2.0000   -0.9749    0.0000 C   0  0  0  0  0  0  0  0  0  0  0  0
    4.5478   -0.2552    0.0000 H   0  0  0  0  0  0  0  0  0  0  0  0
    8.0774   -2.6296    0.0000 H   0  0  0  0  0  0  0  0  0  0  0  0
    8.0774    0.6797    0.0000 H   0  0  0  0  0  0  0  0  0  0  0  0
    6.0269   -3.2113    0.0000 H   0  0  0  0  0  0  0  0  0  0  0  0
    6.7693   -3.6778    0.0000 H   0  0  0  0  0  0  0  0  0  0  0  0
    7.2358   -2.9354    0.0000 H   0  0  0  0  0  0  0  0  0  0  0  0
    9.5264   -1.8078    0.0000 H   0  0  0  0  0  0  0  0  0  0  0  0
    8.0414    0.9965    0.0000 H   0  0  0  0  0  0  0  0  0  0  0  0
    5.3058    1.6209    0.0000 H   0  0  0  0  0  0  0  0  0  0  0  0
    8.4019    2.5759    0.0000 H   0  0  0  0  0  0  0  0  0  0  0  0
    5.6663    3.2003    0.0000 H   0  0  0  0  0  0  0  0  0  0  0  0
    7.2143    3.6778    0.0000 H   0  0  0  0  0  0  0  0  0  0  0  0
    2.5369    1.0671    0.0000 H   0  0  0  0  0  0  0  0  0  0  0  0
    1.6900    1.2941    0.0000 H   0  0  0  0  0  0  0  0  0  0  0  0
    1.4631    0.4471    0.0000 H   0  0  0  0  0  0  0  0  0  0  0  0
    1.4631   -0.6649    0.0000 H   0  0  0  0  0  0  0  0  0  0  0  0
    1.6900   -1.5119    0.0000 H   0  0  0  0  0  0  0  0  0  0  0  0
    2.5369   -1.2849    0.0000 H   0  0  0  0  0  0  0  0  0  0  0  0
  1 18  1  0  0  0  0 
  2 11  1  0  0  0  0 
  2 23  1  0  0  0  0 
  3 12  2  0  0  0  0 
  4 23  2  0  0  0  0 
  5  8  1  0  0  0  0 
  5 12  1  0  0  0  0 
  5 16  1  0  0  0  0 
  6 10  2  0  0  0  0 
  6 11  1  0  0  0  0 
  7 23  1  0  0  0  0 
  7 25  1  0  0  0  0 
  7 26  1  0  0  0  0 
  8  9  2  0  0  0  0 
  8 14  1  0  0  0  0 
  9 10  1  0  0  0  0 
  9 15  1  0  0  0  0 
 10 13  1  0  0  0  0 
 11 12  1  0  0  0  0 
 11 27  1  0  0  0  0 
 13 19  2  0  0  0  0 
 13 20  1  0  0  0  0 
 14 17  2  0  0  0  0 
 14 28  1  0  0  0  0 
 15 18  2  0  0  0  0 
 15 29  1  0  0  0  0 
 16 30  1  0  0  0  0 
 16 31  1  0  0  0  0 
 16 32  1  0  0  0  0 
 17 18  1  0  0  0  0 
 17 33  1  0  0  0  0 
 19 21  1  0  0  0  0 
 19 34  1  0  0  0  0 
 20 22  2  0  0  0  0 
 20 35  1  0  0  0  0 
 21 24  2  0  0  0  0 
 21 36  1  0  0  0  0 
 22 24  1  0  0  0  0 
 22 37  1  0  0  0  0 
 24 38  1  0  0  0  0 
 25 39  1  0  0  0  0 
 25 40  1  0  0  0  0 
 25 41  1  0  0  0  0 
 26 42  1  0  0  0  0 
 26 43  1  0  0  0  0 
 26 44  1  0  0  0  0 
M  END
> <cdk:Title>
37367

> <cdk:Remark>
null

> <PUBCHEM_COMPOUND_CID>
37367

> <PUBCHEM_COMPOUND_CANONICALIZED>
1

> <PUBCHEM_CACTVS_COMPLEXITY>
574

> <PUBCHEM_CACTVS_HBOND_ACCEPTOR>
4

> <PUBCHEM_CACTVS_HBOND_DONOR>
0

> <PUBCHEM_CACTVS_ROTATABLE_BOND>
3

> <PUBCHEM_CACTVS_SUBSKEYS>
AAADceB7MAAEAAAAAAAAAAAAAAAAAAAAAAAwYAAABAAAAAABQAAAHgIAAAAADArhmCYyyIMABACoAyVyXAKCAAAhBwAIiADoZpgKYKLBk5WdIAhghgDYyAcQgMAOAABAIAACAAAAAIBAAAQAAAAAAAAAAA==

> <PUBCHEM_IUPAC_OPENEYE_NAME>
(7-chloro-1-methyl-2-oxo-5-phenyl-3H-1,4-benzodiazepin-3-yl) N,N-dimethylcarbamate

> <PUBCHEM_IUPAC_CAS_NAME>
N,N-dimethylcarbamic acid (7-chloro-1-methyl-2-oxo-5-phenyl-3H-1,4-benzodiazepin-3-yl) ester

> <PUBCHEM_IUPAC_NAME>
(7-chloro-1-methyl-2-oxo-5-phenyl-3H-1,4-benzodiazepin-3-yl) N,N-dimethylcarbamate

> <PUBCHEM_IUPAC_SYSTEMATIC_NAME>
(7-chloranyl-1-methyl-2-oxidanylidene-5-phenyl-3H-1,4-benzodiazepin-3-yl) N,N-dimethylcarbamate

> <PUBCHEM_IUPAC_TRADITIONAL_NAME>
N,N-dimethylcarbamic acid (7-chloro-2-keto-1-methyl-5-phenyl-3H-1,4-benzodiazepin-3-yl) ester

> <PUBCHEM_IUPAC_INCHI>
InChI=1S/C19H18ClN3O3/c1-22(2)19(25)26-17-18(24)23(3)15-10-9-13(20)11-14(15)16(21-17)12-7-5-4-6-8-12/h4-11,17H,1-3H3

> <PUBCHEM_IUPAC_INCHIKEY>
PXBVEXGRHZFEOF-UHFFFAOYSA-N

> <PUBCHEM_XLOGP3>
2.8

> <PUBCHEM_EXACT_MASS>
371.103669

> <PUBCHEM_MOLECULAR_FORMULA>
C19H18ClN3O3

> <PUBCHEM_MOLECULAR_WEIGHT>
371.81752

> <PUBCHEM_OPENEYE_CAN_SMILES>
CN1C2=C(C=C(C=C2)Cl)C(=NC(C1=O)OC(=O)N(C)C)C3=CC=CC=C3

> <PUBCHEM_OPENEYE_ISO_SMILES>
CN1C2=C(C=C(C=C2)Cl)C(=NC(C1=O)OC(=O)N(C)C)C3=CC=CC=C3

> <PUBCHEM_CACTVS_TPSA>
62.2

> <PUBCHEM_MONOISOTOPIC_WEIGHT>
371.103669

> <PUBCHEM_TOTAL_CHARGE>
0

> <PUBCHEM_HEAVY_ATOM_COUNT>
26

> <PUBCHEM_ATOM_DEF_STEREO_COUNT>
0

> <PUBCHEM_ATOM_UDEF_STEREO_COUNT>
1

> <PUBCHEM_BOND_DEF_STEREO_COUNT>
0

> <PUBCHEM_BOND_UDEF_STEREO_COUNT>
0

> <PUBCHEM_ISOTOPIC_ATOM_COUNT>
0

> <PUBCHEM_COMPONENT_COUNT>
1

> <PUBCHEM_CACTVS_TAUTO_COUNT>
2

> <PUBCHEM_COORDINATE_TYPE>
1
5
255

> <PUBCHEM_BONDANNOTATIONS>
11  27  3
13  19  8
13  20  8
14  17  8
15  18  8
17  18  8
19  21  8
20  22  8
21  24  8
22  24  8
8  14  8
8  9  8
9  15  8

> <DRUG_ID>
w222

> <DRUG_NAME>
Camazepam

$$$$
4737
  CDK     0927151942
null
 34 34  0  0  0  0  0  0  0  0999 V2000
    5.4641   -0.2321    0.0000 O   0  0  0  0  0  0  0  0  0  0  0  0
    2.0000   -0.2321    0.0000 O   0  0  0  0  0  0  0  0  0  0  0  0
    3.7320   -3.2320    0.0000 O   0  0  0  0  0  0  0  0  0  0  0  0
    4.5981   -1.7320    0.0000 N   0  0  0  0  0  0  0  0  0  0  0  0
    2.8660   -1.7320    0.0000 N   0  0  0  0  0  0  0  0  0  0  0  0
    3.7320   -0.2321    0.0000 C   0  0  0  0  0  0  0  0  0  0  0  0
    4.2320    0.6340    0.0000 C   0  0  3  0  0  0  0  0  0  0  0  0
    3.7320    1.5000    0.0000 C   0  0  0  0  0  0  0  0  0  0  0  0
    3.2320    0.6340    0.0000 C   0  0  0  0  0  0  0  0  0  0  0  0
    4.5981   -0.7321    0.0000 C   0  0  0  0  0  0  0  0  0  0  0  0
    2.8660   -0.7321    0.0000 C   0  0  0  0  0  0  0  0  0  0  0  0
    5.2320    0.6340    0.0000 C   0  0  0  0  0  0  0  0  0  0  0  0
    4.2320    2.3660    0.0000 C   0  0  0  0  0  0  0  0  0  0  0  0
    2.2320    0.6340    0.0000 C   0  0  0  0  0  0  0  0  0  0  0  0
    3.7320   -2.2320    0.0000 C   0  0  0  0  0  0  0  0  0  0  0  0
    3.7320    3.2320    0.0000 C   0  0  0  0  0  0  0  0  0  0  0  0
    4.5420    1.1709    0.0000 H   0  0  0  0  0  0  0  0  0  0  0  0
    3.2571    1.8985    0.0000 H   0  0  0  0  0  0  0  0  0  0  0  0
    3.2571    1.1015    0.0000 H   0  0  0  0  0  0  0  0  0  0  0  0
    3.8147    0.8460    0.0000 H   0  0  0  0  0  0  0  0  0  0  0  0
    3.1244    1.2446    0.0000 H   0  0  0  0  0  0  0  0  0  0  0  0
    5.2320    0.0140    0.0000 H   0  0  0  0  0  0  0  0  0  0  0  0
    5.8520    0.6340    0.0000 H   0  0  0  0  0  0  0  0  0  0  0  0
    5.2320    1.2540    0.0000 H   0  0  0  0  0  0  0  0  0  0  0  0
    4.7070    1.9675    0.0000 H   0  0  0  0  0  0  0  0  0  0  0  0
    4.7070    2.7646    0.0000 H   0  0  0  0  0  0  0  0  0  0  0  0
    2.2320    1.2540    0.0000 H   0  0  0  0  0  0  0  0  0  0  0  0
    1.6120    0.6340    0.0000 H   0  0  0  0  0  0  0  0  0  0  0  0
    2.2320    0.0140    0.0000 H   0  0  0  0  0  0  0  0  0  0  0  0
    2.3291   -2.0420    0.0000 H   0  0  0  0  0  0  0  0  0  0  0  0
    5.1350   -2.0420    0.0000 H   0  0  0  0  0  0  0  0  0  0  0  0
    4.2690    3.5420    0.0000 H   0  0  0  0  0  0  0  0  0  0  0  0
    3.4220    3.7690    0.0000 H   0  0  0  0  0  0  0  0  0  0  0  0
    3.1951    2.9220    0.0000 H   0  0  0  0  0  0  0  0  0  0  0  0
  1 10  2  0  0  0  0 
  2 11  2  0  0  0  0 
  3 15  2  0  0  0  0 
  4 10  1  0  0  0  0 
  4 15  1  0  0  0  0 
  4 31  1  0  0  0  0 
  5 11  1  0  0  0  0 
  5 15  1  0  0  0  0 
  5 30  1  0  0  0  0 
  6  7  1  0  0  0  0 
  6  9  1  0  0  0  0 
  6 10  1  0  0  0  0 
  6 11  1  0  0  0  0 
  7  8  1  0  0  0  0 
  7 12  1  0  0  0  0 
  7 17  1  0  0  0  0 
  8 13  1  0  0  0  0 
  8 18  1  0  0  0  0 
  8 19  1  0  0  0  0 
  9 14  1  0  0  0  0 
  9 20  1  0  0  0  0 
  9 21  1  0  0  0  0 
 12 22  1  0  0  0  0 
 12 23  1  0  0  0  0 
 12 24  1  0  0  0  0 
 13 16  1  0  0  0  0 
 13 25  1  0  0  0  0 
 13 26  1  0  0  0  0 
 14 27  1  0  0  0  0 
 14 28  1  0  0  0  0 
 14 29  1  0  0  0  0 
 16 32  1  0  0  0  0 
 16 33  1  0  0  0  0 
 16 34  1  0  0  0  0 
M  END
> <cdk:Title>
4737

> <cdk:Remark>
null

> <PUBCHEM_COMPOUND_CID>
4737

> <PUBCHEM_COMPOUND_CANONICALIZED>
1

> <PUBCHEM_CACTVS_COMPLEXITY>
305

> <PUBCHEM_CACTVS_HBOND_ACCEPTOR>
3

> <PUBCHEM_CACTVS_HBOND_DONOR>
2

> <PUBCHEM_CACTVS_ROTATABLE_BOND>
4

> <PUBCHEM_CACTVS_SUBSKEYS>
AAADceBzMAAAAAAAAAAAAAAAAAAAAAAAAAAsAAAAAAAAAAAAAAAAHgAQAAAADwCBgAADAALAAAAIAAEQEAAAAAAAAAAAAAEAAACAABoIwAAEAAAIBSIAAAEYiAAPgAAAAAAAAAAAAAAAAAAAAAAAAAAAAA==

> <PUBCHEM_IUPAC_OPENEYE_NAME>
5-ethyl-5-(1-methylbutyl)hexahydropyrimidine-2,4,6-trione

> <PUBCHEM_IUPAC_CAS_NAME>
5-ethyl-5-pentan-2-yl-1,3-diazinane-2,4,6-trione

> <PUBCHEM_IUPAC_NAME>
5-ethyl-5-pentan-2-yl-1,3-diazinane-2,4,6-trione

> <PUBCHEM_IUPAC_SYSTEMATIC_NAME>
5-ethyl-5-pentan-2-yl-1,3-diazinane-2,4,6-trione

> <PUBCHEM_IUPAC_TRADITIONAL_NAME>
5-ethyl-5-(1-methylbutyl)barbituric acid

> <PUBCHEM_IUPAC_INCHI>
InChI=1S/C11H18N2O3/c1-4-6-7(3)11(5-2)8(14)12-10(16)13-9(11)15/h7H,4-6H2,1-3H3,(H2,12,13,14,15,16)

> <PUBCHEM_IUPAC_INCHIKEY>
WEXRUCMBJFQVBZ-UHFFFAOYSA-N

> <PUBCHEM_XLOGP3>
2.1

> <PUBCHEM_EXACT_MASS>
226.131742

> <PUBCHEM_MOLECULAR_FORMULA>
C11H18N2O3

> <PUBCHEM_MOLECULAR_WEIGHT>
226.27222

> <PUBCHEM_OPENEYE_CAN_SMILES>
CCCC(C)C1(C(=O)NC(=O)NC1=O)CC

> <PUBCHEM_OPENEYE_ISO_SMILES>
CCCC(C)C1(C(=O)NC(=O)NC1=O)CC

> <PUBCHEM_CACTVS_TPSA>
75.3

> <PUBCHEM_MONOISOTOPIC_WEIGHT>
226.131742

> <PUBCHEM_TOTAL_CHARGE>
0

> <PUBCHEM_HEAVY_ATOM_COUNT>
16

> <PUBCHEM_ATOM_DEF_STEREO_COUNT>
0

> <PUBCHEM_ATOM_UDEF_STEREO_COUNT>
1

> <PUBCHEM_BOND_DEF_STEREO_COUNT>
0

> <PUBCHEM_BOND_UDEF_STEREO_COUNT>
0

> <PUBCHEM_ISOTOPIC_ATOM_COUNT>
0

> <PUBCHEM_COMPONENT_COUNT>
1

> <PUBCHEM_CACTVS_TAUTO_COUNT>
5

> <PUBCHEM_COORDINATE_TYPE>
1
5
255

> <PUBCHEM_BONDANNOTATIONS>
7  12  3

> <DRUG_ID>
w223

> <DRUG_NAME>
Pentobarbital

$$$$
2164
  CDK     0927151942
null
 34 34  0  0  0  0  0  0  0  0999 V2000
    2.0000   -0.2321    0.0000 O   0  0  0  0  0  0  0  0  0  0  0  0
    5.4641   -0.2321    0.0000 O   0  0  0  0  0  0  0  0  0  0  0  0
    3.7320   -3.2320    0.0000 O   0  0  0  0  0  0  0  0  0  0  0  0
    4.5981   -1.7320    0.0000 N   0  0  0  0  0  0  0  0  0  0  0  0
    2.8660   -1.7320    0.0000 N   0  0  0  0  0  0  0  0  0  0  0  0
    3.7320   -0.2321    0.0000 C   0  0  0  0  0  0  0  0  0  0  0  0
    4.2320    0.6340    0.0000 C   0  0  0  0  0  0  0  0  0  0  0  0
    3.7320    1.5000    0.0000 C   0  0  0  0  0  0  0  0  0  0  0  0
    3.2320    0.6340    0.0000 C   0  0  0  0  0  0  0  0  0  0  0  0
    4.2320    2.3660    0.0000 C   0  0  0  0  0  0  0  0  0  0  0  0
    4.5981   -0.7321    0.0000 C   0  0  0  0  0  0  0  0  0  0  0  0
    2.8660   -0.7321    0.0000 C   0  0  0  0  0  0  0  0  0  0  0  0
    2.2320    0.6340    0.0000 C   0  0  0  0  0  0  0  0  0  0  0  0
    3.7320    3.2320    0.0000 C   0  0  0  0  0  0  0  0  0  0  0  0
    5.2320    2.3660    0.0000 C   0  0  0  0  0  0  0  0  0  0  0  0
    3.7320   -2.2320    0.0000 C   0  0  0  0  0  0  0  0  0  0  0  0
    4.7070    0.2354    0.0000 H   0  0  0  0  0  0  0  0  0  0  0  0
    4.7070    1.0325    0.0000 H   0  0  0  0  0  0  0  0  0  0  0  0
    3.2571    1.8985    0.0000 H   0  0  0  0  0  0  0  0  0  0  0  0
    3.2571    1.1015    0.0000 H   0  0  0  0  0  0  0  0  0  0  0  0
    3.8147    0.8460    0.0000 H   0  0  0  0  0  0  0  0  0  0  0  0
    3.1244    1.2446    0.0000 H   0  0  0  0  0  0  0  0  0  0  0  0
    3.6120    2.3660    0.0000 H   0  0  0  0  0  0  0  0  0  0  0  0
    2.2320    1.2540    0.0000 H   0  0  0  0  0  0  0  0  0  0  0  0
    1.6120    0.6340    0.0000 H   0  0  0  0  0  0  0  0  0  0  0  0
    2.2320    0.0140    0.0000 H   0  0  0  0  0  0  0  0  0  0  0  0
    5.2320    1.7460    0.0000 H   0  0  0  0  0  0  0  0  0  0  0  0
    5.8520    2.3660    0.0000 H   0  0  0  0  0  0  0  0  0  0  0  0
    5.2320    2.9860    0.0000 H   0  0  0  0  0  0  0  0  0  0  0  0
    4.2690    3.5420    0.0000 H   0  0  0  0  0  0  0  0  0  0  0  0
    3.4220    3.7690    0.0000 H   0  0  0  0  0  0  0  0  0  0  0  0
    3.1951    2.9220    0.0000 H   0  0  0  0  0  0  0  0  0  0  0  0
    2.3291   -2.0420    0.0000 H   0  0  0  0  0  0  0  0  0  0  0  0
    5.1350   -2.0420    0.0000 H   0  0  0  0  0  0  0  0  0  0  0  0
  1 12  2  0  0  0  0 
  2 11  2  0  0  0  0 
  3 16  2  0  0  0  0 
  4 11  1  0  0  0  0 
  4 16  1  0  0  0  0 
  4 34  1  0  0  0  0 
  5 12  1  0  0  0  0 
  5 16  1  0  0  0  0 
  5 33  1  0  0  0  0 
  6  7  1  0  0  0  0 
  6  9  1  0  0  0  0 
  6 11  1  0  0  0  0 
  6 12  1  0  0  0  0 
  7  8  1  0  0  0  0 
  7 17  1  0  0  0  0 
  7 18  1  0  0  0  0 
  8 10  1  0  0  0  0 
  8 19  1  0  0  0  0 
  8 20  1  0  0  0  0 
  9 13  1  0  0  0  0 
  9 21  1  0  0  0  0 
  9 22  1  0  0  0  0 
 10 14  1  0  0  0  0 
 10 15  1  0  0  0  0 
 10 23  1  0  0  0  0 
 13 24  1  0  0  0  0 
 13 25  1  0  0  0  0 
 13 26  1  0  0  0  0 
 14 30  1  0  0  0  0 
 14 31  1  0  0  0  0 
 14 32  1  0  0  0  0 
 15 27  1  0  0  0  0 
 15 28  1  0  0  0  0 
 15 29  1  0  0  0  0 
M  END
> <cdk:Title>
2164

> <cdk:Remark>
null

> <PUBCHEM_COMPOUND_CID>
2164

> <PUBCHEM_COMPOUND_CANONICALIZED>
1

> <PUBCHEM_CACTVS_COMPLEXITY>
303

> <PUBCHEM_CACTVS_HBOND_ACCEPTOR>
3

> <PUBCHEM_CACTVS_HBOND_DONOR>
2

> <PUBCHEM_CACTVS_ROTATABLE_BOND>
4

> <PUBCHEM_CACTVS_SUBSKEYS>
AAADceBzMAAAAAAAAAAAAAAAAAAAAAAAAAAsAAAAAAAAAAAAAAAAHgAQAAAADwCBgAADAALAAAAIAAEQEAAAAAAAAAAAAAEAAACAABoIwAAEAAAIBSIAAAEYiEAPAAAAAAAAAAAAAAAAAAAAAAAAAAAAAA==

> <PUBCHEM_IUPAC_OPENEYE_NAME>
5-ethyl-5-isopentyl-hexahydropyrimidine-2,4,6-trione

> <PUBCHEM_IUPAC_CAS_NAME>
5-ethyl-5-(3-methylbutyl)-1,3-diazinane-2,4,6-trione

> <PUBCHEM_IUPAC_NAME>
5-ethyl-5-(3-methylbutyl)-1,3-diazinane-2,4,6-trione

> <PUBCHEM_IUPAC_SYSTEMATIC_NAME>
5-ethyl-5-(3-methylbutyl)-1,3-diazinane-2,4,6-trione

> <PUBCHEM_IUPAC_TRADITIONAL_NAME>
5-ethyl-5-isoamyl-barbituric acid

> <PUBCHEM_IUPAC_INCHI>
InChI=1S/C11H18N2O3/c1-4-11(6-5-7(2)3)8(14)12-10(16)13-9(11)15/h7H,4-6H2,1-3H3,(H2,12,13,14,15,16)

> <PUBCHEM_IUPAC_INCHIKEY>
VIROVYVQCGLCII-UHFFFAOYSA-N

> <PUBCHEM_XLOGP3>
2.1

> <PUBCHEM_EXACT_MASS>
226.131742

> <PUBCHEM_MOLECULAR_FORMULA>
C11H18N2O3

> <PUBCHEM_MOLECULAR_WEIGHT>
226.27222

> <PUBCHEM_OPENEYE_CAN_SMILES>
CCC1(C(=O)NC(=O)NC1=O)CCC(C)C

> <PUBCHEM_OPENEYE_ISO_SMILES>
CCC1(C(=O)NC(=O)NC1=O)CCC(C)C

> <PUBCHEM_CACTVS_TPSA>
75.3

> <PUBCHEM_MONOISOTOPIC_WEIGHT>
226.131742

> <PUBCHEM_TOTAL_CHARGE>
0

> <PUBCHEM_HEAVY_ATOM_COUNT>
16

> <PUBCHEM_ATOM_DEF_STEREO_COUNT>
0

> <PUBCHEM_ATOM_UDEF_STEREO_COUNT>
0

> <PUBCHEM_BOND_DEF_STEREO_COUNT>
0

> <PUBCHEM_BOND_UDEF_STEREO_COUNT>
0

> <PUBCHEM_ISOTOPIC_ATOM_COUNT>
0

> <PUBCHEM_COMPONENT_COUNT>
1

> <PUBCHEM_CACTVS_TAUTO_COUNT>
5

> <PUBCHEM_COORDINATE_TYPE>
1
5
255

> <DRUG_ID>
w224

> <DRUG_NAME>
Amobarbital

$$$$
6464
  CDK     0927151942
null
 29 29  0  0  0  0  0  0  0  0999 V2000
    5.7320    0.6340    0.0000 O   0  0  0  0  0  0  0  0  0  0  0  0
    2.2680    0.6340    0.0000 O   0  0  0  0  0  0  0  0  0  0  0  0
    4.0000   -2.3660    0.0000 O   0  0  0  0  0  0  0  0  0  0  0  0
    4.8660   -0.8660    0.0000 N   0  0  0  0  0  0  0  0  0  0  0  0
    3.1340   -0.8660    0.0000 N   0  0  0  0  0  0  0  0  0  0  0  0
    4.0000    0.6340    0.0000 C   0  0  0  0  0  0  0  0  0  0  0  0
    4.5000    1.5000    0.0000 C   0  0  0  0  0  0  0  0  0  0  0  0
    3.5000    1.5000    0.0000 C   0  0  0  0  0  0  0  0  0  0  0  0
    3.1340    0.1340    0.0000 C   0  0  0  0  0  0  0  0  0  0  0  0
    4.8660    0.1340    0.0000 C   0  0  0  0  0  0  0  0  0  0  0  0
    4.0000    2.3660    0.0000 C   0  0  0  0  0  0  0  0  0  0  0  0
    5.5000    1.5000    0.0000 C   0  0  0  0  0  0  0  0  0  0  0  0
    2.5000    1.5000    0.0000 C   0  0  0  0  0  0  0  0  0  0  0  0
    4.0000   -1.3660    0.0000 C   0  0  0  0  0  0  0  0  0  0  0  0
    2.0000    2.3660    0.0000 C   0  0  0  0  0  0  0  0  0  0  0  0
    3.8800    1.5000    0.0000 H   0  0  0  0  0  0  0  0  0  0  0  0
    4.0826    1.7120    0.0000 H   0  0  0  0  0  0  0  0  0  0  0  0
    3.3923    2.1106    0.0000 H   0  0  0  0  0  0  0  0  0  0  0  0
    4.5369    2.6760    0.0000 H   0  0  0  0  0  0  0  0  0  0  0  0
    5.5000    0.8800    0.0000 H   0  0  0  0  0  0  0  0  0  0  0  0
    6.1200    1.5000    0.0000 H   0  0  0  0  0  0  0  0  0  0  0  0
    5.5000    2.1200    0.0000 H   0  0  0  0  0  0  0  0  0  0  0  0
    3.6900    2.9030    0.0000 H   0  0  0  0  0  0  0  0  0  0  0  0
    3.4631    2.0560    0.0000 H   0  0  0  0  0  0  0  0  0  0  0  0
    5.4030   -1.1760    0.0000 H   0  0  0  0  0  0  0  0  0  0  0  0
    2.5970   -1.1760    0.0000 H   0  0  0  0  0  0  0  0  0  0  0  0
    2.1900    0.9631    0.0000 H   0  0  0  0  0  0  0  0  0  0  0  0
    2.3100    2.9030    0.0000 H   0  0  0  0  0  0  0  0  0  0  0  0
    1.3800    2.3660    0.0000 H   0  0  0  0  0  0  0  0  0  0  0  0
  1 10  2  0  0  0  0 
  2  9  2  0  0  0  0 
  3 14  2  0  0  0  0 
  4 10  1  0  0  0  0 
  4 14  1  0  0  0  0 
  4 25  1  0  0  0  0 
  5  9  1  0  0  0  0 
  5 14  1  0  0  0  0 
  5 26  1  0  0  0  0 
  6  7  1  0  0  0  0 
  6  8  1  0  0  0  0 
  6  9  1  0  0  0  0 
  6 10  1  0  0  0  0 
  7 11  1  0  0  0  0 
  7 12  1  0  0  0  0 
  7 16  1  0  0  0  0 
  8 13  1  0  0  0  0 
  8 17  1  0  0  0  0 
  8 18  1  0  0  0  0 
 11 19  1  0  0  0  0 
 11 23  1  0  0  0  0 
 11 24  1  0  0  0  0 
 12 20  1  0  0  0  0 
 12 21  1  0  0  0  0 
 12 22  1  0  0  0  0 
 13 15  2  0  0  0  0 
 13 27  1  0  0  0  0 
 15 28  1  0  0  0  0 
 15 29  1  0  0  0  0 
M  END
> <cdk:Title>
6464

> <cdk:Remark>
null

> <PUBCHEM_COMPOUND_CID>
6464

> <PUBCHEM_COMPOUND_CANONICALIZED>
1

> <PUBCHEM_CACTVS_COMPLEXITY>
314

> <PUBCHEM_CACTVS_HBOND_ACCEPTOR>
3

> <PUBCHEM_CACTVS_HBOND_DONOR>
2

> <PUBCHEM_CACTVS_ROTATABLE_BOND>
3

> <PUBCHEM_CACTVS_SUBSKEYS>
AAADccBzMAAAAAAAAAAAAAAAAAAAAAAAAAAsAAAAAAAAAAAAAAAAHgAQAAAADwCBgAADAALAAACIACFSEAAAAAAgAAAIAAEAAAiAABoIwQAEAAAIhSIAAAAAAAAPgAAAAAAAAAAAAAAAAAAAAAAAAAAAAA==

> <PUBCHEM_IUPAC_OPENEYE_NAME>
5-allyl-5-isopropyl-hexahydropyrimidine-2,4,6-trione

> <PUBCHEM_IUPAC_CAS_NAME>
5-propan-2-yl-5-prop-2-enyl-1,3-diazinane-2,4,6-trione

> <PUBCHEM_IUPAC_NAME>
5-propan-2-yl-5-prop-2-enyl-1,3-diazinane-2,4,6-trione

> <PUBCHEM_IUPAC_SYSTEMATIC_NAME>
5-propan-2-yl-5-prop-2-enyl-1,3-diazinane-2,4,6-trione

> <PUBCHEM_IUPAC_TRADITIONAL_NAME>
5-allyl-5-isopropyl-barbituric acid

> <PUBCHEM_IUPAC_INCHI>
InChI=1S/C10H14N2O3/c1-4-5-10(6(2)3)7(13)11-9(15)12-8(10)14/h4,6H,1,5H2,2-3H3,(H2,11,12,13,14,15)

> <PUBCHEM_IUPAC_INCHIKEY>
UORJNBVJVRLXMQ-UHFFFAOYSA-N

> <PUBCHEM_XLOGP3>
1.1

> <PUBCHEM_EXACT_MASS>
210.100442

> <PUBCHEM_MOLECULAR_FORMULA>
C10H14N2O3

> <PUBCHEM_MOLECULAR_WEIGHT>
210.22976

> <PUBCHEM_OPENEYE_CAN_SMILES>
CC(C)C1(C(=O)NC(=O)NC1=O)CC=C

> <PUBCHEM_OPENEYE_ISO_SMILES>
CC(C)C1(C(=O)NC(=O)NC1=O)CC=C

> <PUBCHEM_CACTVS_TPSA>
75.3

> <PUBCHEM_MONOISOTOPIC_WEIGHT>
210.100442

> <PUBCHEM_TOTAL_CHARGE>
0

> <PUBCHEM_HEAVY_ATOM_COUNT>
15

> <PUBCHEM_ATOM_DEF_STEREO_COUNT>
0

> <PUBCHEM_ATOM_UDEF_STEREO_COUNT>
0

> <PUBCHEM_BOND_DEF_STEREO_COUNT>
0

> <PUBCHEM_BOND_UDEF_STEREO_COUNT>
0

> <PUBCHEM_ISOTOPIC_ATOM_COUNT>
0

> <PUBCHEM_COMPONENT_COUNT>
1

> <PUBCHEM_CACTVS_TAUTO_COUNT>
5

> <PUBCHEM_COORDINATE_TYPE>
1
5
255

> <DRUG_ID>
w225

> <DRUG_NAME>
Aprobarbital

$$$$
5193
  CDK     0927151942
null
 35 35  0  0  0  0  0  0  0  0999 V2000
    5.7320   -0.2321    0.0000 O   0  0  0  0  0  0  0  0  0  0  0  0
    2.2680   -0.2321    0.0000 O   0  0  0  0  0  0  0  0  0  0  0  0
    4.0000   -3.2320    0.0000 O   0  0  0  0  0  0  0  0  0  0  0  0
    4.8660   -1.7320    0.0000 N   0  0  0  0  0  0  0  0  0  0  0  0
    3.1340   -1.7320    0.0000 N   0  0  0  0  0  0  0  0  0  0  0  0
    4.0000   -0.2321    0.0000 C   0  0  0  0  0  0  0  0  0  0  0  0
    4.5000    0.6340    0.0000 C   0  0  3  0  0  0  0  0  0  0  0  0
    4.0000    1.5000    0.0000 C   0  0  0  0  0  0  0  0  0  0  0  0
    3.5000    0.6340    0.0000 C   0  0  0  0  0  0  0  0  0  0  0  0
    5.5000    0.6340    0.0000 C   0  0  0  0  0  0  0  0  0  0  0  0
    4.8660   -0.7321    0.0000 C   0  0  0  0  0  0  0  0  0  0  0  0
    3.1340   -0.7321    0.0000 C   0  0  0  0  0  0  0  0  0  0  0  0
    4.5000    2.3660    0.0000 C   0  0  0  0  0  0  0  0  0  0  0  0
    2.5000    0.6340    0.0000 C   0  0  0  0  0  0  0  0  0  0  0  0
    4.0000   -2.2320    0.0000 C   0  0  0  0  0  0  0  0  0  0  0  0
    4.0000    3.2320    0.0000 C   0  0  0  0  0  0  0  0  0  0  0  0
    2.0000    1.5000    0.0000 C   0  0  0  0  0  0  0  0  0  0  0  0
    4.8100    1.1709    0.0000 H   0  0  0  0  0  0  0  0  0  0  0  0
    3.5250    1.8985    0.0000 H   0  0  0  0  0  0  0  0  0  0  0  0
    3.5250    1.1015    0.0000 H   0  0  0  0  0  0  0  0  0  0  0  0
    4.0826    0.8460    0.0000 H   0  0  0  0  0  0  0  0  0  0  0  0
    3.3923    1.2446    0.0000 H   0  0  0  0  0  0  0  0  0  0  0  0
    5.5000    0.0140    0.0000 H   0  0  0  0  0  0  0  0  0  0  0  0
    6.1200    0.6340    0.0000 H   0  0  0  0  0  0  0  0  0  0  0  0
    5.5000    1.2540    0.0000 H   0  0  0  0  0  0  0  0  0  0  0  0
    4.9750    1.9675    0.0000 H   0  0  0  0  0  0  0  0  0  0  0  0
    4.9750    2.7646    0.0000 H   0  0  0  0  0  0  0  0  0  0  0  0
    2.5970   -2.0420    0.0000 H   0  0  0  0  0  0  0  0  0  0  0  0
    5.4030   -2.0420    0.0000 H   0  0  0  0  0  0  0  0  0  0  0  0
    2.1900    0.0970    0.0000 H   0  0  0  0  0  0  0  0  0  0  0  0
    4.5369    3.5420    0.0000 H   0  0  0  0  0  0  0  0  0  0  0  0
    3.6900    3.7690    0.0000 H   0  0  0  0  0  0  0  0  0  0  0  0
    3.4631    2.9220    0.0000 H   0  0  0  0  0  0  0  0  0  0  0  0
    2.3100    2.0369    0.0000 H   0  0  0  0  0  0  0  0  0  0  0  0
    1.3800    1.5000    0.0000 H   0  0  0  0  0  0  0  0  0  0  0  0
  1 11  2  0  0  0  0 
  2 12  2  0  0  0  0 
  3 15  2  0  0  0  0 
  4 11  1  0  0  0  0 
  4 15  1  0  0  0  0 
  4 29  1  0  0  0  0 
  5 12  1  0  0  0  0 
  5 15  1  0  0  0  0 
  5 28  1  0  0  0  0 
  6  7  1  0  0  0  0 
  6  9  1  0  0  0  0 
  6 11  1  0  0  0  0 
  6 12  1  0  0  0  0 
  7  8  1  0  0  0  0 
  7 10  1  0  0  0  0 
  7 18  1  0  0  0  0 
  8 13  1  0  0  0  0 
  8 19  1  0  0  0  0 
  8 20  1  0  0  0  0 
  9 14  1  0  0  0  0 
  9 21  1  0  0  0  0 
  9 22  1  0  0  0  0 
 10 23  1  0  0  0  0 
 10 24  1  0  0  0  0 
 10 25  1  0  0  0  0 
 13 16  1  0  0  0  0 
 13 26  1  0  0  0  0 
 13 27  1  0  0  0  0 
 14 17  2  0  0  0  0 
 14 30  1  0  0  0  0 
 16 31  1  0  0  0  0 
 16 32  1  0  0  0  0 
 16 33  1  0  0  0  0 
 17 34  1  0  0  0  0 
 17 35  1  0  0  0  0 
M  END
> <cdk:Title>
5193

> <cdk:Remark>
null

> <PUBCHEM_COMPOUND_CID>
5193

> <PUBCHEM_COMPOUND_CANONICALIZED>
1

> <PUBCHEM_CACTVS_COMPLEXITY>
343

> <PUBCHEM_CACTVS_HBOND_ACCEPTOR>
3

> <PUBCHEM_CACTVS_HBOND_DONOR>
2

> <PUBCHEM_CACTVS_ROTATABLE_BOND>
5

> <PUBCHEM_CACTVS_SUBSKEYS>
AAADceBzMAAAAAAAAAAAAAAAAAAAAAAAAAAsAAAAAAAAAAAAAAAAHgAQAAAADwCBgAADAALAAACIACFSEAAAAAAgAAAIAAEAAAiAABoIwQAEAAAIhSIAAAEYiAAPgAAAAAAAAAAAAAAAAAAAAAAAAAAAAA==

> <PUBCHEM_IUPAC_OPENEYE_NAME>
5-allyl-5-(1-methylbutyl)hexahydropyrimidine-2,4,6-trione

> <PUBCHEM_IUPAC_CAS_NAME>
5-pentan-2-yl-5-prop-2-enyl-1,3-diazinane-2,4,6-trione

> <PUBCHEM_IUPAC_NAME>
5-pentan-2-yl-5-prop-2-enyl-1,3-diazinane-2,4,6-trione

> <PUBCHEM_IUPAC_SYSTEMATIC_NAME>
5-pentan-2-yl-5-prop-2-enyl-1,3-diazinane-2,4,6-trione

> <PUBCHEM_IUPAC_TRADITIONAL_NAME>
5-allyl-5-(1-methylbutyl)barbituric acid

> <PUBCHEM_IUPAC_INCHI>
InChI=1S/C12H18N2O3/c1-4-6-8(3)12(7-5-2)9(15)13-11(17)14-10(12)16/h5,8H,2,4,6-7H2,1,3H3,(H2,13,14,15,16,17)

> <PUBCHEM_IUPAC_INCHIKEY>
KQPKPCNLIDLUMF-UHFFFAOYSA-N

> <PUBCHEM_XLOGP3>
2

> <PUBCHEM_EXACT_MASS>
238.131742

> <PUBCHEM_MOLECULAR_FORMULA>
C12H18N2O3

> <PUBCHEM_MOLECULAR_WEIGHT>
238.28292

> <PUBCHEM_OPENEYE_CAN_SMILES>
CCCC(C)C1(C(=O)NC(=O)NC1=O)CC=C

> <PUBCHEM_OPENEYE_ISO_SMILES>
CCCC(C)C1(C(=O)NC(=O)NC1=O)CC=C

> <PUBCHEM_CACTVS_TPSA>
75.3

> <PUBCHEM_MONOISOTOPIC_WEIGHT>
238.131742

> <PUBCHEM_TOTAL_CHARGE>
0

> <PUBCHEM_HEAVY_ATOM_COUNT>
17

> <PUBCHEM_ATOM_DEF_STEREO_COUNT>
0

> <PUBCHEM_ATOM_UDEF_STEREO_COUNT>
1

> <PUBCHEM_BOND_DEF_STEREO_COUNT>
0

> <PUBCHEM_BOND_UDEF_STEREO_COUNT>
0

> <PUBCHEM_ISOTOPIC_ATOM_COUNT>
0

> <PUBCHEM_COMPONENT_COUNT>
1

> <PUBCHEM_CACTVS_TAUTO_COUNT>
5

> <PUBCHEM_COORDINATE_TYPE>
1
5
255

> <PUBCHEM_BONDANNOTATIONS>
7  10  3

> <DRUG_ID>
w226

> <DRUG_NAME>
Secobarbital

$$$$
5284636
  CDK     0927151942
null
 32 32  0  0  0  0  0  0  0  0999 V2000
    5.4641   -0.2321    0.0000 O   0  0  0  0  0  0  0  0  0  0  0  0
    2.0000   -0.2321    0.0000 O   0  0  0  0  0  0  0  0  0  0  0  0
    3.7320   -3.2320    0.0000 O   0  0  0  0  0  0  0  0  0  0  0  0
    4.5981   -1.7320    0.0000 N   0  0  0  0  0  0  0  0  0  0  0  0
    2.8660   -1.7320    0.0000 N   0  0  0  0  0  0  0  0  0  0  0  0
    3.7320   -0.2321    0.0000 C   0  0  0  0  0  0  0  0  0  0  0  0
    3.2320    0.6340    0.0000 C   0  0  0  0  0  0  0  0  0  0  0  0
    4.2320    0.6340    0.0000 C   0  0  0  0  0  0  0  0  0  0  0  0
    4.5981   -0.7321    0.0000 C   0  0  0  0  0  0  0  0  0  0  0  0
    2.8660   -0.7321    0.0000 C   0  0  0  0  0  0  0  0  0  0  0  0
    2.2320    0.6340    0.0000 C   0  0  0  0  0  0  0  0  0  0  0  0
    3.7320    1.5000    0.0000 C   0  0  0  0  0  0  0  0  0  0  0  0
    5.2320    0.6340    0.0000 C   0  0  0  0  0  0  0  0  0  0  0  0
    3.7320   -2.2320    0.0000 C   0  0  0  0  0  0  0  0  0  0  0  0
    4.2320    2.3660    0.0000 C   0  0  0  0  0  0  0  0  0  0  0  0
    3.7320    3.2320    0.0000 C   0  0  0  0  0  0  0  0  0  0  0  0
    3.8147    0.8460    0.0000 H   0  0  0  0  0  0  0  0  0  0  0  0
    3.1244    1.2446    0.0000 H   0  0  0  0  0  0  0  0  0  0  0  0
    2.2320    1.2540    0.0000 H   0  0  0  0  0  0  0  0  0  0  0  0
    1.6120    0.6340    0.0000 H   0  0  0  0  0  0  0  0  0  0  0  0
    2.2320    0.0140    0.0000 H   0  0  0  0  0  0  0  0  0  0  0  0
    3.1120    1.5000    0.0000 H   0  0  0  0  0  0  0  0  0  0  0  0
    5.2320    0.0140    0.0000 H   0  0  0  0  0  0  0  0  0  0  0  0
    5.8520    0.6340    0.0000 H   0  0  0  0  0  0  0  0  0  0  0  0
    5.2320    1.2540    0.0000 H   0  0  0  0  0  0  0  0  0  0  0  0
    2.3291   -2.0420    0.0000 H   0  0  0  0  0  0  0  0  0  0  0  0
    5.1350   -2.0420    0.0000 H   0  0  0  0  0  0  0  0  0  0  0  0
    4.7070    1.9675    0.0000 H   0  0  0  0  0  0  0  0  0  0  0  0
    4.7070    2.7646    0.0000 H   0  0  0  0  0  0  0  0  0  0  0  0
    4.2690    3.5420    0.0000 H   0  0  0  0  0  0  0  0  0  0  0  0
    3.4220    3.7690    0.0000 H   0  0  0  0  0  0  0  0  0  0  0  0
    3.1951    2.9220    0.0000 H   0  0  0  0  0  0  0  0  0  0  0  0
  1  9  2  0  0  0  0 
  2 10  2  0  0  0  0 
  3 14  2  0  0  0  0 
  4  9  1  0  0  0  0 
  4 14  1  0  0  0  0 
  4 27  1  0  0  0  0 
  5 10  1  0  0  0  0 
  5 14  1  0  0  0  0 
  5 26  1  0  0  0  0 
  6  7  1  0  0  0  0 
  6  8  1  0  0  0  0 
  6  9  1  0  0  0  0 
  6 10  1  0  0  0  0 
  7 11  1  0  0  0  0 
  7 17  1  0  0  0  0 
  7 18  1  0  0  0  0 
  8 12  2  0  0  0  0 
  8 13  1  0  0  0  0 
 11 19  1  0  0  0  0 
 11 20  1  0  0  0  0 
 11 21  1  0  0  0  0 
 12 15  1  0  0  0  0 
 12 22  1  0  0  0  0 
 13 23  1  0  0  0  0 
 13 24  1  0  0  0  0 
 13 25  1  0  0  0  0 
 15 16  1  0  0  0  0 
 15 28  1  0  0  0  0 
 15 29  1  0  0  0  0 
 16 30  1  0  0  0  0 
 16 31  1  0  0  0  0 
 16 32  1  0  0  0  0 
M  END
> <cdk:Title>
5284636

> <cdk:Remark>
null

> <PUBCHEM_COMPOUND_CID>
5284636

> <PUBCHEM_COMPOUND_CANONICALIZED>
1

> <PUBCHEM_CACTVS_COMPLEXITY>
351

> <PUBCHEM_CACTVS_HBOND_ACCEPTOR>
3

> <PUBCHEM_CACTVS_HBOND_DONOR>
2

> <PUBCHEM_CACTVS_ROTATABLE_BOND>
3

> <PUBCHEM_CACTVS_SUBSKEYS>
AAADceBzMAAAAAAAAAAAAAAAAAAAAAAAAAAsAAAAAAAAAAAAAAAAHgAQAAAADgCBgAADAALAAACIAiFSEAAAAAAgAAAACAEAAAiAABoIwQAEAAAIhSIIAAIAAAALAAAAAAAAAAAAAAAAAAAAAAAAAAAAAA==

> <PUBCHEM_IUPAC_OPENEYE_NAME>
5-ethyl-5-[(E)-1-methylbut-1-enyl]hexahydropyrimidine-2,4,6-trione

> <PUBCHEM_IUPAC_CAS_NAME>
5-ethyl-5-[(E)-pent-2-en-2-yl]-1,3-diazinane-2,4,6-trione

> <PUBCHEM_IUPAC_NAME>
5-ethyl-5-[(E)-pent-2-en-2-yl]-1,3-diazinane-2,4,6-trione

> <PUBCHEM_IUPAC_SYSTEMATIC_NAME>
5-ethyl-5-[(E)-pent-2-en-2-yl]-1,3-diazinane-2,4,6-trione

> <PUBCHEM_IUPAC_TRADITIONAL_NAME>
5-ethyl-5-[(E)-1-methylbut-1-enyl]barbituric acid

> <PUBCHEM_IUPAC_INCHI>
InChI=1S/C11H16N2O3/c1-4-6-7(3)11(5-2)8(14)12-10(16)13-9(11)15/h6H,4-5H2,1-3H3,(H2,12,13,14,15,16)/b7-6+

> <PUBCHEM_IUPAC_INCHIKEY>
RAFOHKSPUDGZPR-VOTSOKGWSA-N

> <PUBCHEM_XLOGP3_AA>
1.7

> <PUBCHEM_EXACT_MASS>
224.116092

> <PUBCHEM_MOLECULAR_FORMULA>
C11H16N2O3

> <PUBCHEM_MOLECULAR_WEIGHT>
224.25634

> <PUBCHEM_OPENEYE_CAN_SMILES>
CCC=C(C)C1(C(=O)NC(=O)NC1=O)CC

> <PUBCHEM_OPENEYE_ISO_SMILES>
CC/C=C(\C)/C1(C(=O)NC(=O)NC1=O)CC

> <PUBCHEM_CACTVS_TPSA>
75.3

> <PUBCHEM_MONOISOTOPIC_WEIGHT>
224.116092

> <PUBCHEM_TOTAL_CHARGE>
0

> <PUBCHEM_HEAVY_ATOM_COUNT>
16

> <PUBCHEM_ATOM_DEF_STEREO_COUNT>
0

> <PUBCHEM_ATOM_UDEF_STEREO_COUNT>
0

> <PUBCHEM_BOND_DEF_STEREO_COUNT>
1

> <PUBCHEM_BOND_UDEF_STEREO_COUNT>
0

> <PUBCHEM_ISOTOPIC_ATOM_COUNT>
0

> <PUBCHEM_COMPONENT_COUNT>
1

> <PUBCHEM_CACTVS_TAUTO_COUNT>
5

> <PUBCHEM_COORDINATE_TYPE>
1
5
255

> <DRUG_ID>
w227

> <DRUG_NAME>
Vinbarbital

$$$$
5838
  CDK     0927151942
null
 33 34  0  0  0  0  0  0  0  0999 V2000
    5.4641    0.2010    0.0000 O   0  0  0  0  0  0  0  0  0  0  0  0
    2.0000    0.2010    0.0000 O   0  0  0  0  0  0  0  0  0  0  0  0
    3.7320   -2.7990    0.0000 O   0  0  0  0  0  0  0  0  0  0  0  0
    4.5981   -1.2990    0.0000 N   0  0  0  0  0  0  0  0  0  0  0  0
    2.8660   -1.2990    0.0000 N   0  0  0  0  0  0  0  0  0  0  0  0
    3.7320    0.2010    0.0000 C   0  0  0  0  0  0  0  0  0  0  0  0
    4.2320    1.0670    0.0000 C   0  0  0  0  0  0  0  0  0  0  0  0
    3.7320    1.9330    0.0000 C   0  0  0  0  0  0  0  0  0  0  0  0
    4.2320    2.7990    0.0000 C   0  0  0  0  0  0  0  0  0  0  0  0
    3.2320    1.0670    0.0000 C   0  0  0  0  0  0  0  0  0  0  0  0
    5.2320    2.7990    0.0000 C   0  0  0  0  0  0  0  0  0  0  0  0
    5.7320    1.9330    0.0000 C   0  0  0  0  0  0  0  0  0  0  0  0
    5.2320    1.0670    0.0000 C   0  0  0  0  0  0  0  0  0  0  0  0
    4.5981   -0.2990    0.0000 C   0  0  0  0  0  0  0  0  0  0  0  0
    2.8660   -0.2990    0.0000 C   0  0  0  0  0  0  0  0  0  0  0  0
    2.2320    1.0670    0.0000 C   0  0  0  0  0  0  0  0  0  0  0  0
    3.7320   -1.7990    0.0000 C   0  0  0  0  0  0  0  0  0  0  0  0
    3.2571    2.3315    0.0000 H   0  0  0  0  0  0  0  0  0  0  0  0
    3.2571    1.5345    0.0000 H   0  0  0  0  0  0  0  0  0  0  0  0
    4.3397    3.4096    0.0000 H   0  0  0  0  0  0  0  0  0  0  0  0
    3.6494    3.0111    0.0000 H   0  0  0  0  0  0  0  0  0  0  0  0
    3.8147    1.2790    0.0000 H   0  0  0  0  0  0  0  0  0  0  0  0
    3.1244    1.6776    0.0000 H   0  0  0  0  0  0  0  0  0  0  0  0
    5.8147    3.0111    0.0000 H   0  0  0  0  0  0  0  0  0  0  0  0
    5.1244    3.4096    0.0000 H   0  0  0  0  0  0  0  0  0  0  0  0
    6.2070    1.5345    0.0000 H   0  0  0  0  0  0  0  0  0  0  0  0
    6.2070    2.3315    0.0000 H   0  0  0  0  0  0  0  0  0  0  0  0
    5.5420    0.5301    0.0000 H   0  0  0  0  0  0  0  0  0  0  0  0
    2.2320    1.6870    0.0000 H   0  0  0  0  0  0  0  0  0  0  0  0
    1.6120    1.0670    0.0000 H   0  0  0  0  0  0  0  0  0  0  0  0
    2.2320    0.4470    0.0000 H   0  0  0  0  0  0  0  0  0  0  0  0
    5.1350   -1.6090    0.0000 H   0  0  0  0  0  0  0  0  0  0  0  0
    2.3291   -1.6090    0.0000 H   0  0  0  0  0  0  0  0  0  0  0  0
  1 14  2  0  0  0  0 
  2 15  2  0  0  0  0 
  3 17  2  0  0  0  0 
  4 14  1  0  0  0  0 
  4 17  1  0  0  0  0 
  4 32  1  0  0  0  0 
  5 15  1  0  0  0  0 
  5 17  1  0  0  0  0 
  5 33  1  0  0  0  0 
  6  7  1  0  0  0  0 
  6 10  1  0  0  0  0 
  6 14  1  0  0  0  0 
  6 15  1  0  0  0  0 
  7  8  1  0  0  0  0 
  7 13  2  0  0  0  0 
  8  9  1  0  0  0  0 
  8 18  1  0  0  0  0 
  8 19  1  0  0  0  0 
  9 11  1  0  0  0  0 
  9 20  1  0  0  0  0 
  9 21  1  0  0  0  0 
 10 16  1  0  0  0  0 
 10 22  1  0  0  0  0 
 10 23  1  0  0  0  0 
 11 12  1  0  0  0  0 
 11 24  1  0  0  0  0 
 11 25  1  0  0  0  0 
 12 13  1  0  0  0  0 
 12 26  1  0  0  0  0 
 12 27  1  0  0  0  0 
 13 28  1  0  0  0  0 
 16 29  1  0  0  0  0 
 16 30  1  0  0  0  0 
 16 31  1  0  0  0  0 
M  END
> <cdk:Title>
5838

> <cdk:Remark>
null

> <PUBCHEM_COMPOUND_CID>
5838

> <PUBCHEM_COMPOUND_CANONICALIZED>
1

> <PUBCHEM_CACTVS_COMPLEXITY>
392

> <PUBCHEM_CACTVS_HBOND_ACCEPTOR>
3

> <PUBCHEM_CACTVS_HBOND_DONOR>
2

> <PUBCHEM_CACTVS_ROTATABLE_BOND>
2

> <PUBCHEM_CACTVS_SUBSKEYS>
AAADceBzMAAAAAAAAAAAAAAAAAAAAAAAAAAsQAAAAAAAAAAAAAAAHgAQAAAADgCBgAADAALAAACIAiFSEAAAAAAgAAAACAEAAAiAABoIwQAEAAAIhSIIAAMYiMCPAAAAAAAAAAAAAAAAAAAAAAAAAAAAAA==

> <PUBCHEM_IUPAC_OPENEYE_NAME>
5-(cyclohexen-1-yl)-5-ethyl-hexahydropyrimidine-2,4,6-trione

> <PUBCHEM_IUPAC_CAS_NAME>
5-(1-cyclohexenyl)-5-ethyl-1,3-diazinane-2,4,6-trione

> <PUBCHEM_IUPAC_NAME>
5-(cyclohexen-1-yl)-5-ethyl-1,3-diazinane-2,4,6-trione

> <PUBCHEM_IUPAC_SYSTEMATIC_NAME>
5-(cyclohexen-1-yl)-5-ethyl-1,3-diazinane-2,4,6-trione

> <PUBCHEM_IUPAC_TRADITIONAL_NAME>
5-(cyclohexen-1-yl)-5-ethyl-barbituric acid

> <PUBCHEM_IUPAC_INCHI>
InChI=1S/C12H16N2O3/c1-2-12(8-6-4-3-5-7-8)9(15)13-11(17)14-10(12)16/h6H,2-5,7H2,1H3,(H2,13,14,15,16,17)

> <PUBCHEM_IUPAC_INCHIKEY>
WTYGAUXICFETTC-UHFFFAOYSA-N

> <PUBCHEM_XLOGP3>
1.8

> <PUBCHEM_EXACT_MASS>
236.116092

> <PUBCHEM_MOLECULAR_FORMULA>
C12H16N2O3

> <PUBCHEM_MOLECULAR_WEIGHT>
236.26704

> <PUBCHEM_OPENEYE_CAN_SMILES>
CCC1(C(=O)NC(=O)NC1=O)C2=CCCCC2

> <PUBCHEM_OPENEYE_ISO_SMILES>
CCC1(C(=O)NC(=O)NC1=O)C2=CCCCC2

> <PUBCHEM_CACTVS_TPSA>
75.3

> <PUBCHEM_MONOISOTOPIC_WEIGHT>
236.116092

> <PUBCHEM_TOTAL_CHARGE>
0

> <PUBCHEM_HEAVY_ATOM_COUNT>
17

> <PUBCHEM_ATOM_DEF_STEREO_COUNT>
0

> <PUBCHEM_ATOM_UDEF_STEREO_COUNT>
0

> <PUBCHEM_BOND_DEF_STEREO_COUNT>
0

> <PUBCHEM_BOND_UDEF_STEREO_COUNT>
0

> <PUBCHEM_ISOTOPIC_ATOM_COUNT>
0

> <PUBCHEM_COMPONENT_COUNT>
1

> <PUBCHEM_CACTVS_TAUTO_COUNT>
5

> <PUBCHEM_COORDINATE_TYPE>
1
5
255

> <DRUG_ID>
w228

> <DRUG_NAME>
Cyclobarbital

$$$$
3608
  CDK     0927151942
null
 33 34  0  0  0  0  0  0  0  0999 V2000
    5.4641    0.2010    0.0000 O   0  0  0  0  0  0  0  0  0  0  0  0
    2.0000    0.2010    0.0000 O   0  0  0  0  0  0  0  0  0  0  0  0
    3.7320   -2.7990    0.0000 O   0  0  0  0  0  0  0  0  0  0  0  0
    4.5981   -1.2990    0.0000 N   0  0  0  0  0  0  0  0  0  0  0  0
    2.8660   -1.2990    0.0000 N   0  0  0  0  0  0  0  0  0  0  0  0
    3.7320    0.2010    0.0000 C   0  0  3  0  0  0  0  0  0  0  0  0
    4.2320    1.0670    0.0000 C   0  0  0  0  0  0  0  0  0  0  0  0
    5.2320    1.0670    0.0000 C   0  0  0  0  0  0  0  0  0  0  0  0
    5.7320    1.9330    0.0000 C   0  0  0  0  0  0  0  0  0  0  0  0
    5.2320    2.7990    0.0000 C   0  0  0  0  0  0  0  0  0  0  0  0
    4.2320    2.7990    0.0000 C   0  0  0  0  0  0  0  0  0  0  0  0
    3.7320    1.9330    0.0000 C   0  0  0  0  0  0  0  0  0  0  0  0
    4.5981   -0.2990    0.0000 C   0  0  0  0  0  0  0  0  0  0  0  0
    3.2320    1.0670    0.0000 C   0  0  0  0  0  0  0  0  0  0  0  0
    2.8660   -0.2990    0.0000 C   0  0  0  0  0  0  0  0  0  0  0  0
    3.7320   -1.7990    0.0000 C   0  0  0  0  0  0  0  0  0  0  0  0
    5.4641   -1.7990    0.0000 C   0  0  0  0  0  0  0  0  0  0  0  0
    5.1244    0.4564    0.0000 H   0  0  0  0  0  0  0  0  0  0  0  0
    5.8147    0.8549    0.0000 H   0  0  0  0  0  0  0  0  0  0  0  0
    6.2070    1.5345    0.0000 H   0  0  0  0  0  0  0  0  0  0  0  0
    6.2070    2.3315    0.0000 H   0  0  0  0  0  0  0  0  0  0  0  0
    5.8147    3.0111    0.0000 H   0  0  0  0  0  0  0  0  0  0  0  0
    5.1244    3.4096    0.0000 H   0  0  0  0  0  0  0  0  0  0  0  0
    4.3397    3.4096    0.0000 H   0  0  0  0  0  0  0  0  0  0  0  0
    3.6494    3.0111    0.0000 H   0  0  0  0  0  0  0  0  0  0  0  0
    3.1120    1.9330    0.0000 H   0  0  0  0  0  0  0  0  0  0  0  0
    3.7690    1.3770    0.0000 H   0  0  0  0  0  0  0  0  0  0  0  0
    2.9220    1.6039    0.0000 H   0  0  0  0  0  0  0  0  0  0  0  0
    2.6951    0.7570    0.0000 H   0  0  0  0  0  0  0  0  0  0  0  0
    2.3291   -1.6090    0.0000 H   0  0  0  0  0  0  0  0  0  0  0  0
    5.1541   -2.3360    0.0000 H   0  0  0  0  0  0  0  0  0  0  0  0
    6.0010   -2.1090    0.0000 H   0  0  0  0  0  0  0  0  0  0  0  0
    5.7741   -1.2621    0.0000 H   0  0  0  0  0  0  0  0  0  0  0  0
  1 13  2  0  0  0  0 
  2 15  2  0  0  0  0 
  3 16  2  0  0  0  0 
  4 13  1  0  0  0  0 
  4 16  1  0  0  0  0 
  4 17  1  0  0  0  0 
  5 15  1  0  0  0  0 
  5 16  1  0  0  0  0 
  5 30  1  0  0  0  0 
  6  7  1  0  0  0  0 
  6 13  1  0  0  0  0 
  6 14  1  0  0  0  0 
  6 15  1  0  0  0  0 
  7  8  1  0  0  0  0 
  7 12  2  0  0  0  0 
  8  9  1  0  0  0  0 
  8 18  1  0  0  0  0 
  8 19  1  0  0  0  0 
  9 10  1  0  0  0  0 
  9 20  1  0  0  0  0 
  9 21  1  0  0  0  0 
 10 11  1  0  0  0  0 
 10 22  1  0  0  0  0 
 10 23  1  0  0  0  0 
 11 12  1  0  0  0  0 
 11 24  1  0  0  0  0 
 11 25  1  0  0  0  0 
 12 26  1  0  0  0  0 
 14 27  1  0  0  0  0 
 14 28  1  0  0  0  0 
 14 29  1  0  0  0  0 
 17 31  1  0  0  0  0 
 17 32  1  0  0  0  0 
 17 33  1  0  0  0  0 
M  END
> <cdk:Title>
3608

> <cdk:Remark>
null

> <PUBCHEM_COMPOUND_CID>
3608

> <PUBCHEM_COMPOUND_CANONICALIZED>
1

> <PUBCHEM_CACTVS_COMPLEXITY>
428

> <PUBCHEM_CACTVS_HBOND_ACCEPTOR>
3

> <PUBCHEM_CACTVS_HBOND_DONOR>
1

> <PUBCHEM_CACTVS_ROTATABLE_BOND>
1

> <PUBCHEM_CACTVS_SUBSKEYS>
AAADceBzMAAAAAAAAAAAAAAAAAAAAAAAAAAsQAAAAAAAAAAAAAAAHgAQAAAADgCBgAQDAAPAAACIAiFSEAAAAAAgAAAACAEIAAiAABoIwQAEAAAIhyIIAAMYiMCNAAAAAAAAAAAAAAAAAAAAAAAAAAAAAA==

> <PUBCHEM_IUPAC_OPENEYE_NAME>
5-(cyclohexen-1-yl)-1,5-dimethyl-hexahydropyrimidine-2,4,6-trione

> <PUBCHEM_IUPAC_CAS_NAME>
5-(1-cyclohexenyl)-1,5-dimethyl-1,3-diazinane-2,4,6-trione

> <PUBCHEM_IUPAC_NAME>
5-(cyclohexen-1-yl)-1,5-dimethyl-1,3-diazinane-2,4,6-trione

> <PUBCHEM_IUPAC_SYSTEMATIC_NAME>
5-(cyclohexen-1-yl)-1,5-dimethyl-1,3-diazinane-2,4,6-trione

> <PUBCHEM_IUPAC_TRADITIONAL_NAME>
5-(cyclohexen-1-yl)-1,5-dimethyl-barbituric acid

> <PUBCHEM_IUPAC_INCHI>
InChI=1S/C12H16N2O3/c1-12(8-6-4-3-5-7-8)9(15)13-11(17)14(2)10(12)16/h6H,3-5,7H2,1-2H3,(H,13,15,17)

> <PUBCHEM_IUPAC_INCHIKEY>
UYXAWHWODHRRMR-UHFFFAOYSA-N

> <PUBCHEM_XLOGP3>
1.5

> <PUBCHEM_EXACT_MASS>
236.116092

> <PUBCHEM_MOLECULAR_FORMULA>
C12H16N2O3

> <PUBCHEM_MOLECULAR_WEIGHT>
236.26704

> <PUBCHEM_OPENEYE_CAN_SMILES>
CC1(C(=O)NC(=O)N(C1=O)C)C2=CCCCC2

> <PUBCHEM_OPENEYE_ISO_SMILES>
CC1(C(=O)NC(=O)N(C1=O)C)C2=CCCCC2

> <PUBCHEM_CACTVS_TPSA>
66.5

> <PUBCHEM_MONOISOTOPIC_WEIGHT>
236.116092

> <PUBCHEM_TOTAL_CHARGE>
0

> <PUBCHEM_HEAVY_ATOM_COUNT>
17

> <PUBCHEM_ATOM_DEF_STEREO_COUNT>
0

> <PUBCHEM_ATOM_UDEF_STEREO_COUNT>
1

> <PUBCHEM_BOND_DEF_STEREO_COUNT>
0

> <PUBCHEM_BOND_UDEF_STEREO_COUNT>
0

> <PUBCHEM_ISOTOPIC_ATOM_COUNT>
0

> <PUBCHEM_COMPONENT_COUNT>
1

> <PUBCHEM_CACTVS_TAUTO_COUNT>
3

> <PUBCHEM_COORDINATE_TYPE>
1
5
255

> <PUBCHEM_BONDANNOTATIONS>
6  14  3

> <DRUG_ID>
w229

> <DRUG_NAME>
Hexobarbital

$$$$
163093
  CDK     0927151942
null
 29 28  0  0  0  0  0  0  0  0999 V2000
    2.7020    0.8660    0.0000 P   0  0  0  0  0  0  0  0  0  0  0  0
    3.5680    1.3660    0.0000 O   0  0  0  0  0  0  0  0  0  0  0  0
    1.8360    0.3660    0.0000 O   0  0  0  0  0  0  0  0  0  0  0  0
    2.2020    1.7320    0.0000 O   0  0  0  0  0  0  0  0  0  0  0  0
    3.2020    0.0000    0.0000 O   0  0  0  0  0  0  0  0  0  0  0  0
    2.2690    4.8890    0.0000 N   0  0  0  0  0  0  0  0  0  0  0  0
    4.0010    4.8890    0.0000 N   0  0  0  0  0  0  0  0  0  0  0  0
    3.1350    6.3890    0.0000 N   0  0  0  0  0  0  0  0  0  0  0  0
    1.4030    5.3890    0.0000 C   0  0  0  0  0  0  0  0  0  0  0  0
    0.5369    4.8890    0.0000 C   0  0  0  0  0  0  0  0  0  0  0  0
    1.4030    6.3890    0.0000 C   0  0  0  0  0  0  0  0  0  0  0  0
    3.1350    5.3890    0.0000 C   0  0  0  0  0  0  0  0  0  0  0  0
    4.8671    5.3890    0.0000 C   0  0  0  0  0  0  0  0  0  0  0  0
    4.0010    6.8890    0.0000 C   0  0  0  0  0  0  0  0  0  0  0  0
    4.8671    6.3890    0.0000 C   0  0  0  0  0  0  0  0  0  0  0  0
    1.4030    4.7690    0.0000 H   0  0  0  0  0  0  0  0  0  0  0  0
    0.2269    5.4259    0.0000 H   0  0  0  0  0  0  0  0  0  0  0  0
    0.0000    4.5790    0.0000 H   0  0  0  0  0  0  0  0  0  0  0  0
    0.8469    4.3520    0.0000 H   0  0  0  0  0  0  0  0  0  0  0  0
    2.0230    6.3890    0.0000 H   0  0  0  0  0  0  0  0  0  0  0  0
    1.4030    7.0090    0.0000 H   0  0  0  0  0  0  0  0  0  0  0  0
    0.7830    6.3890    0.0000 H   0  0  0  0  0  0  0  0  0  0  0  0
    2.2690    4.2690    0.0000 H   0  0  0  0  0  0  0  0  0  0  0  0
    5.4040    5.0790    0.0000 H   0  0  0  0  0  0  0  0  0  0  0  0
    4.0010    7.5090    0.0000 H   0  0  0  0  0  0  0  0  0  0  0  0
    5.4040    6.6990    0.0000 H   0  0  0  0  0  0  0  0  0  0  0  0
    4.1050    1.0560    0.0000 H   0  0  0  0  0  0  0  0  0  0  0  0
    1.2990    0.6760    0.0000 H   0  0  0  0  0  0  0  0  0  0  0  0
    2.5120    2.2690    0.0000 H   0  0  0  0  0  0  0  0  0  0  0  0
  1  2  1  0  0  0  0 
  1  3  1  0  0  0  0 
  1  4  1  0  0  0  0 
  1  5  2  0  0  0  0 
  2 27  1  0  0  0  0 
  3 28  1  0  0  0  0 
  4 29  1  0  0  0  0 
  6  9  1  0  0  0  0 
  6 12  1  0  0  0  0 
  6 23  1  0  0  0  0 
  7 12  1  0  0  0  0 
  7 13  2  0  0  0  0 
  8 12  2  0  0  0  0 
  8 14  1  0  0  0  0 
  9 10  1  0  0  0  0 
  9 11  1  0  0  0  0 
  9 16  1  0  0  0  0 
 10 17  1  0  0  0  0 
 10 18  1  0  0  0  0 
 10 19  1  0  0  0  0 
 11 20  1  0  0  0  0 
 11 21  1  0  0  0  0 
 11 22  1  0  0  0  0 
 13 15  1  0  0  0  0 
 13 24  1  0  0  0  0 
 14 15  2  0  0  0  0 
 14 25  1  0  0  0  0 
 15 26  1  0  0  0  0 
M  END
> <cdk:Title>
163093

> <cdk:Remark>
null

> <PUBCHEM_COMPOUND_CID>
163093

> <PUBCHEM_COMPOUND_CANONICALIZED>
1

> <PUBCHEM_CACTVS_COMPLEXITY>
137

> <PUBCHEM_CACTVS_HBOND_ACCEPTOR>
7

> <PUBCHEM_CACTVS_HBOND_DONOR>
4

> <PUBCHEM_CACTVS_ROTATABLE_BOND>
2

> <PUBCHEM_CACTVS_SUBSKEYS>
AAADccBjOAIAAAAAAAAAAAAAAAAAAAAAAAAsAAAAAAAAAAABgAAAHAAQCCAACCjBEgQ/kJbIEBCgQDBnZICAgCkRAqAJUKA4ZBCACIBASUAEBAgIEAJAACAAAAAAAAAAAAAAAAAAAAAAAAAAAAAAAAAAAA==

> <PUBCHEM_IUPAC_OPENEYE_NAME>
N-isopropylpyrimidin-2-amine;phosphoric acid

> <PUBCHEM_IUPAC_CAS_NAME>
phosphoric acid;N-propan-2-yl-2-pyrimidinamine

> <PUBCHEM_IUPAC_NAME>
phosphoric acid;N-propan-2-ylpyrimidin-2-amine

> <PUBCHEM_IUPAC_SYSTEMATIC_NAME>
phosphoric acid;N-propan-2-ylpyrimidin-2-amine

> <PUBCHEM_IUPAC_TRADITIONAL_NAME>
isopropyl(2-pyrimidyl)amine;phosphoric acid

> <PUBCHEM_IUPAC_INCHI>
InChI=1S/C7H11N3.H3O4P/c1-6(2)10-7-8-4-3-5-9-7;1-5(2,3)4/h3-6H,1-2H3,(H,8,9,10);(H3,1,2,3,4)

> <PUBCHEM_IUPAC_INCHIKEY>
CXEBHWXMQKIKPJ-UHFFFAOYSA-N

> <PUBCHEM_EXACT_MASS>
235.072193

> <PUBCHEM_MOLECULAR_FORMULA>
C7H14N3O4P

> <PUBCHEM_MOLECULAR_WEIGHT>
235.177522

> <PUBCHEM_OPENEYE_CAN_SMILES>
CC(C)NC1=NC=CC=N1.OP(=O)(O)O

> <PUBCHEM_OPENEYE_ISO_SMILES>
CC(C)NC1=NC=CC=N1.OP(=O)(O)O

> <PUBCHEM_CACTVS_TPSA>
116

> <PUBCHEM_MONOISOTOPIC_WEIGHT>
235.072193

> <PUBCHEM_TOTAL_CHARGE>
0

> <PUBCHEM_HEAVY_ATOM_COUNT>
15

> <PUBCHEM_ATOM_DEF_STEREO_COUNT>
0

> <PUBCHEM_ATOM_UDEF_STEREO_COUNT>
0

> <PUBCHEM_BOND_DEF_STEREO_COUNT>
0

> <PUBCHEM_BOND_UDEF_STEREO_COUNT>
0

> <PUBCHEM_ISOTOPIC_ATOM_COUNT>
0

> <PUBCHEM_COMPONENT_COUNT>
2

> <PUBCHEM_CACTVS_TAUTO_COUNT>
2

> <PUBCHEM_COORDINATE_TYPE>
1
5
255

> <PUBCHEM_BONDANNOTATIONS>
13  15  8
14  15  8
7  12  8
7  13  8
8  12  8
8  14  8

> <DRUG_ID>
w23

> <DRUG_NAME>
Isaxonine phosphate

$$$$
3380
  CDK     0927151942
null
 35 37  0  0  0  0  0  0  0  0999 V2000
    5.5096    0.7381    0.0000 F   0  0  0  0  0  0  0  0  0  0  0  0
    2.0000   -2.6577    0.0000 O   0  0  0  0  0  0  0  0  0  0  0  0
    7.9123   -0.4474    0.0000 O   0  0  0  0  0  0  0  0  0  0  0  0
    7.0405    1.0492    0.0000 O   0  0  0  0  0  0  0  0  0  0  0  0
    3.5984   -2.0984    0.0000 N   0  0  0  0  0  0  0  0  0  0  0  0
    2.6235   -0.0740    0.0000 N   0  0  0  0  0  0  0  0  0  0  0  0
    7.0444    0.0492    0.0000 N   0  0  0  0  0  0  0  0  0  0  0  0
    4.3802   -0.4749    0.0000 C   0  0  0  0  0  0  0  0  0  0  0  0
    4.3802   -1.4749    0.0000 C   0  0  0  0  0  0  0  0  0  0  0  0
    3.5984    0.1486    0.0000 C   0  0  0  0  0  0  0  0  0  0  0  0
    5.2742    0.0597    0.0000 C   0  0  0  0  0  0  0  0  0  0  0  0
    2.1896   -0.9749    0.0000 C   0  0  0  0  0  0  0  0  0  0  0  0
    5.2742   -2.0096    0.0000 C   0  0  0  0  0  0  0  0  0  0  0  0
    2.6235   -1.8759    0.0000 C   0  0  0  0  0  0  0  0  0  0  0  0
    3.8209    1.1235    0.0000 C   0  0  0  0  0  0  0  0  0  0  0  0
    6.1803   -0.4541    0.0000 C   0  0  0  0  0  0  0  0  0  0  0  0
    6.1803   -1.4957    0.0000 C   0  0  0  0  0  0  0  0  0  0  0  0
    3.8209   -3.0734    0.0000 C   0  0  0  0  0  0  0  0  0  0  0  0
    4.7765    1.4182    0.0000 C   0  0  0  0  0  0  0  0  0  0  0  0
    3.0879    1.8037    0.0000 C   0  0  0  0  0  0  0  0  0  0  0  0
    4.9990    2.3932    0.0000 C   0  0  0  0  0  0  0  0  0  0  0  0
    3.3104    2.7786    0.0000 C   0  0  0  0  0  0  0  0  0  0  0  0
    4.2660    3.0734    0.0000 C   0  0  0  0  0  0  0  0  0  0  0  0
    5.2670    0.6797    0.0000 H   0  0  0  0  0  0  0  0  0  0  0  0
    1.7049   -0.5884    0.0000 H   0  0  0  0  0  0  0  0  0  0  0  0
    1.7049   -1.3615    0.0000 H   0  0  0  0  0  0  0  0  0  0  0  0
    5.2670   -2.6296    0.0000 H   0  0  0  0  0  0  0  0  0  0  0  0
    6.7160   -1.8078    0.0000 H   0  0  0  0  0  0  0  0  0  0  0  0
    3.2165   -3.2113    0.0000 H   0  0  0  0  0  0  0  0  0  0  0  0
    3.9589   -3.6778    0.0000 H   0  0  0  0  0  0  0  0  0  0  0  0
    4.4254   -2.9354    0.0000 H   0  0  0  0  0  0  0  0  0  0  0  0
    2.4954    1.6209    0.0000 H   0  0  0  0  0  0  0  0  0  0  0  0
    5.5915    2.5759    0.0000 H   0  0  0  0  0  0  0  0  0  0  0  0
    2.8559    3.2003    0.0000 H   0  0  0  0  0  0  0  0  0  0  0  0
    4.4039    3.6778    0.0000 H   0  0  0  0  0  0  0  0  0  0  0  0
  1 19  1  0  0  0  0 
  2 14  2  0  0  0  0 
  3  7  1  0  0  0  0 
  4  7  2  0  0  0  0 
  5  9  1  0  0  0  0 
  5 14  1  0  0  0  0 
  5 18  1  0  0  0  0 
  6 10  2  0  0  0  0 
  6 12  1  0  0  0  0 
  7 16  1  0  0  0  0 
  8  9  2  0  0  0  0 
  8 10  1  0  0  0  0 
  8 11  1  0  0  0  0 
  9 13  1  0  0  0  0 
 10 15  1  0  0  0  0 
 11 16  2  0  0  0  0 
 11 24  1  0  0  0  0 
 12 14  1  0  0  0  0 
 12 25  1  0  0  0  0 
 12 26  1  0  0  0  0 
 13 17  2  0  0  0  0 
 13 27  1  0  0  0  0 
 15 19  1  0  0  0  0 
 15 20  2  0  0  0  0 
 16 17  1  0  0  0  0 
 17 28  1  0  0  0  0 
 18 29  1  0  0  0  0 
 18 30  1  0  0  0  0 
 18 31  1  0  0  0  0 
 19 21  2  0  0  0  0 
 20 22  1  0  0  0  0 
 20 32  1  0  0  0  0 
 21 23  1  0  0  0  0 
 21 33  1  0  0  0  0 
 22 23  2  0  0  0  0 
 22 34  1  0  0  0  0 
 23 35  1  0  0  0  0 
M  CHG  1   3  -1
M  CHG  1   7   1
M  END
> <cdk:Title>
3380

> <cdk:Remark>
null

> <PUBCHEM_COMPOUND_CID>
3380

> <PUBCHEM_COMPOUND_CANONICALIZED>
1

> <PUBCHEM_CACTVS_COMPLEXITY>
519

> <PUBCHEM_CACTVS_HBOND_ACCEPTOR>
5

> <PUBCHEM_CACTVS_HBOND_DONOR>
0

> <PUBCHEM_CACTVS_ROTATABLE_BOND>
1

> <PUBCHEM_CACTVS_SUBSKEYS>
AAADccB7MQAAAAAAAAAAAAAAAAAAAAAAAAAwYAAABAAAAAABQAAAHwAEAAAADAjBmAwywIMQQACpAyVyVwCCAAAhAgAoiACoZJoIYKLAkZGUIAhghgDIyAcQgMAOAACAQAACAAAAAQCAAAQAAAAAAAAAAA==

> <PUBCHEM_IUPAC_OPENEYE_NAME>
5-(2-fluorophenyl)-1-methyl-7-nitro-3H-1,4-benzodiazepin-2-one

> <PUBCHEM_IUPAC_CAS_NAME>
5-(2-fluorophenyl)-1-methyl-7-nitro-3H-1,4-benzodiazepin-2-one

> <PUBCHEM_IUPAC_NAME>
5-(2-fluorophenyl)-1-methyl-7-nitro-3H-1,4-benzodiazepin-2-one

> <PUBCHEM_IUPAC_SYSTEMATIC_NAME>
5-(2-fluorophenyl)-1-methyl-7-nitro-3H-1,4-benzodiazepin-2-one

> <PUBCHEM_IUPAC_TRADITIONAL_NAME>
5-(2-fluorophenyl)-1-methyl-7-nitro-3H-1,4-benzodiazepin-2-one

> <PUBCHEM_IUPAC_INCHI>
InChI=1S/C16H12FN3O3/c1-19-14-7-6-10(20(22)23)8-12(14)16(18-9-15(19)21)11-4-2-3-5-13(11)17/h2-8H,9H2,1H3

> <PUBCHEM_IUPAC_INCHIKEY>
PPTYJKAXVCCBDU-UHFFFAOYSA-N

> <PUBCHEM_XLOGP3>
2.1

> <PUBCHEM_EXACT_MASS>
313.086269

> <PUBCHEM_MOLECULAR_FORMULA>
C16H12FN3O3

> <PUBCHEM_MOLECULAR_WEIGHT>
313.283183

> <PUBCHEM_OPENEYE_CAN_SMILES>
CN1C(=O)CN=C(C2=C1C=CC(=C2)[N+](=O)[O-])C3=CC=CC=C3F

> <PUBCHEM_OPENEYE_ISO_SMILES>
CN1C(=O)CN=C(C2=C1C=CC(=C2)[N+](=O)[O-])C3=CC=CC=C3F

> <PUBCHEM_CACTVS_TPSA>
78.5

> <PUBCHEM_MONOISOTOPIC_WEIGHT>
313.086269

> <PUBCHEM_TOTAL_CHARGE>
0

> <PUBCHEM_HEAVY_ATOM_COUNT>
23

> <PUBCHEM_ATOM_DEF_STEREO_COUNT>
0

> <PUBCHEM_ATOM_UDEF_STEREO_COUNT>
0

> <PUBCHEM_BOND_DEF_STEREO_COUNT>
0

> <PUBCHEM_BOND_UDEF_STEREO_COUNT>
0

> <PUBCHEM_ISOTOPIC_ATOM_COUNT>
0

> <PUBCHEM_COMPONENT_COUNT>
1

> <PUBCHEM_CACTVS_TAUTO_COUNT>
2

> <PUBCHEM_COORDINATE_TYPE>
1
5
255

> <PUBCHEM_BONDANNOTATIONS>
11  16  8
13  17  8
15  19  8
15  20  8
16  17  8
19  21  8
20  22  8
21  23  8
22  23  8
8  11  8
8  9  8
9  13  8

> <DRUG_ID>
w230

> <DRUG_NAME>
Flunitrazepam

$$$$
5391
  CDK     0927151942
null
 34 36  0  0  0  0  0  0  0  0999 V2000
    8.1647    0.0492    0.0000 Cl  0  0  0  0  0  0  0  0  0  0  0  0
    2.3100   -0.9749    0.0000 O   0  0  0  0  0  0  0  0  0  0  0  0
    3.1204   -2.6577    0.0000 O   0  0  0  0  0  0  0  0  0  0  0  0
    4.7188   -2.0984    0.0000 N   0  0  0  0  0  0  0  0  0  0  0  0
    3.7439   -0.0740    0.0000 N   0  0  0  0  0  0  0  0  0  0  0  0
    5.5006   -1.4749    0.0000 C   0  0  0  0  0  0  0  0  0  0  0  0
    5.5006   -0.4749    0.0000 C   0  0  0  0  0  0  0  0  0  0  0  0
    4.7188    0.1486    0.0000 C   0  0  0  0  0  0  0  0  0  0  0  0
    3.3100   -0.9749    0.0000 C   0  0  3  0  0  0  0  0  0  0  0  0
    3.7439   -1.8759    0.0000 C   0  0  0  0  0  0  0  0  0  0  0  0
    4.9413    1.1235    0.0000 C   0  0  0  0  0  0  0  0  0  0  0  0
    6.3946    0.0597    0.0000 C   0  0  0  0  0  0  0  0  0  0  0  0
    6.3946   -2.0096    0.0000 C   0  0  0  0  0  0  0  0  0  0  0  0
    4.9413   -3.0734    0.0000 C   0  0  0  0  0  0  0  0  0  0  0  0
    7.3006   -0.4541    0.0000 C   0  0  0  0  0  0  0  0  0  0  0  0
    7.3006   -1.4957    0.0000 C   0  0  0  0  0  0  0  0  0  0  0  0
    5.8969    1.4182    0.0000 C   0  0  0  0  0  0  0  0  0  0  0  0
    4.2083    1.8037    0.0000 C   0  0  0  0  0  0  0  0  0  0  0  0
    6.1194    2.3932    0.0000 C   0  0  0  0  0  0  0  0  0  0  0  0
    4.4308    2.7786    0.0000 C   0  0  0  0  0  0  0  0  0  0  0  0
    5.3864    3.0734    0.0000 C   0  0  0  0  0  0  0  0  0  0  0  0
    2.8578   -0.2552    0.0000 H   0  0  0  0  0  0  0  0  0  0  0  0
    6.3874    0.6797    0.0000 H   0  0  0  0  0  0  0  0  0  0  0  0
    6.3874   -2.6296    0.0000 H   0  0  0  0  0  0  0  0  0  0  0  0
    4.3369   -3.2113    0.0000 H   0  0  0  0  0  0  0  0  0  0  0  0
    5.0793   -3.6778    0.0000 H   0  0  0  0  0  0  0  0  0  0  0  0
    5.5458   -2.9354    0.0000 H   0  0  0  0  0  0  0  0  0  0  0  0
    7.8364   -1.8078    0.0000 H   0  0  0  0  0  0  0  0  0  0  0  0
    6.3514    0.9965    0.0000 H   0  0  0  0  0  0  0  0  0  0  0  0
    3.6158    1.6209    0.0000 H   0  0  0  0  0  0  0  0  0  0  0  0
    6.7119    2.5759    0.0000 H   0  0  0  0  0  0  0  0  0  0  0  0
    3.9763    3.2003    0.0000 H   0  0  0  0  0  0  0  0  0  0  0  0
    2.0000   -0.4380    0.0000 H   0  0  0  0  0  0  0  0  0  0  0  0
    5.5243    3.6778    0.0000 H   0  0  0  0  0  0  0  0  0  0  0  0
  1 15  1  0  0  0  0 
  2  9  1  0  0  0  0 
  2 33  1  0  0  0  0 
  3 10  2  0  0  0  0 
  4  6  1  0  0  0  0 
  4 10  1  0  0  0  0 
  4 14  1  0  0  0  0 
  5  8  2  0  0  0  0 
  5  9  1  0  0  0  0 
  6  7  2  0  0  0  0 
  6 13  1  0  0  0  0 
  7  8  1  0  0  0  0 
  7 12  1  0  0  0  0 
  8 11  1  0  0  0  0 
  9 10  1  0  0  0  0 
  9 22  1  0  0  0  0 
 11 17  2  0  0  0  0 
 11 18  1  0  0  0  0 
 12 15  2  0  0  0  0 
 12 23  1  0  0  0  0 
 13 16  2  0  0  0  0 
 13 24  1  0  0  0  0 
 14 25  1  0  0  0  0 
 14 26  1  0  0  0  0 
 14 27  1  0  0  0  0 
 15 16  1  0  0  0  0 
 16 28  1  0  0  0  0 
 17 19  1  0  0  0  0 
 17 29  1  0  0  0  0 
 18 20  2  0  0  0  0 
 18 30  1  0  0  0  0 
 19 21  2  0  0  0  0 
 19 31  1  0  0  0  0 
 20 21  1  0  0  0  0 
 20 32  1  0  0  0  0 
 21 34  1  0  0  0  0 
M  END
> <cdk:Title>
5391

> <cdk:Remark>
null

> <PUBCHEM_COMPOUND_CID>
5391

> <PUBCHEM_COMPOUND_CANONICALIZED>
1

> <PUBCHEM_CACTVS_COMPLEXITY>
434

> <PUBCHEM_CACTVS_HBOND_ACCEPTOR>
3

> <PUBCHEM_CACTVS_HBOND_DONOR>
1

> <PUBCHEM_CACTVS_ROTATABLE_BOND>
1

> <PUBCHEM_CACTVS_SUBSKEYS>
AAADccB7MAAEAAAAAAAAAAAAAAAAAAAAAAAwYAAABAAAAAABQAAAHgIACAAADArhmCYywIMAAgCoAyVyVAKCAAAhBwAIiADoZpgKcKLBk5GUIAhghgDYyAcQgMAOAABAIAACAAAAAIBAAAQAAAAAAAAAAA==

> <PUBCHEM_IUPAC_OPENEYE_NAME>
7-chloro-3-hydroxy-1-methyl-5-phenyl-3H-1,4-benzodiazepin-2-one

> <PUBCHEM_IUPAC_CAS_NAME>
7-chloro-3-hydroxy-1-methyl-5-phenyl-3H-1,4-benzodiazepin-2-one

> <PUBCHEM_IUPAC_NAME>
7-chloro-3-hydroxy-1-methyl-5-phenyl-3H-1,4-benzodiazepin-2-one

> <PUBCHEM_IUPAC_SYSTEMATIC_NAME>
7-chloranyl-1-methyl-3-oxidanyl-5-phenyl-3H-1,4-benzodiazepin-2-one

> <PUBCHEM_IUPAC_TRADITIONAL_NAME>
7-chloro-3-hydroxy-1-methyl-5-phenyl-3H-1,4-benzodiazepin-2-one

> <PUBCHEM_IUPAC_INCHI>
InChI=1S/C16H13ClN2O2/c1-19-13-8-7-11(17)9-12(13)14(18-15(20)16(19)21)10-5-3-2-4-6-10/h2-9,15,20H,1H3

> <PUBCHEM_IUPAC_INCHIKEY>
SEQDDYPDSLOBDC-UHFFFAOYSA-N

> <PUBCHEM_XLOGP3>
2.2

> <PUBCHEM_EXACT_MASS>
300.066555

> <PUBCHEM_MOLECULAR_FORMULA>
C16H13ClN2O2

> <PUBCHEM_MOLECULAR_WEIGHT>
300.73962

> <PUBCHEM_OPENEYE_CAN_SMILES>
CN1C2=C(C=C(C=C2)Cl)C(=NC(C1=O)O)C3=CC=CC=C3

> <PUBCHEM_OPENEYE_ISO_SMILES>
CN1C2=C(C=C(C=C2)Cl)C(=NC(C1=O)O)C3=CC=CC=C3

> <PUBCHEM_CACTVS_TPSA>
52.9

> <PUBCHEM_MONOISOTOPIC_WEIGHT>
300.066555

> <PUBCHEM_TOTAL_CHARGE>
0

> <PUBCHEM_HEAVY_ATOM_COUNT>
21

> <PUBCHEM_ATOM_DEF_STEREO_COUNT>
0

> <PUBCHEM_ATOM_UDEF_STEREO_COUNT>
1

> <PUBCHEM_BOND_DEF_STEREO_COUNT>
0

> <PUBCHEM_BOND_UDEF_STEREO_COUNT>
0

> <PUBCHEM_ISOTOPIC_ATOM_COUNT>
0

> <PUBCHEM_COMPONENT_COUNT>
1

> <PUBCHEM_CACTVS_TAUTO_COUNT>
3

> <PUBCHEM_COORDINATE_TYPE>
1
5
255

> <PUBCHEM_BONDANNOTATIONS>
11  17  8
11  18  8
12  15  8
13  16  8
15  16  8
17  19  8
18  20  8
19  21  8
20  21  8
6  13  8
6  7  8
7  12  8
9  22  3

> <DRUG_ID>
w231

> <DRUG_NAME>
Temazepam

$$$$
4994
  CDK     0927151942
null
 25 25  0  0  0  0  0  0  0  0999 V2000
    2.0000    0.1340    0.0000 O   0  0  0  0  0  0  0  0  0  0  0  0
    5.4641    0.1340    0.0000 O   0  0  0  0  0  0  0  0  0  0  0  0
    2.8660   -1.3660    0.0000 N   0  0  0  0  0  0  0  0  0  0  0  0
    3.7320    0.1340    0.0000 C   0  0  0  0  0  0  0  0  0  0  0  0
    4.2320    1.0000    0.0000 C   0  0  0  0  0  0  0  0  0  0  0  0
    3.2320    1.0000    0.0000 C   0  0  0  0  0  0  0  0  0  0  0  0
    2.8660   -0.3660    0.0000 C   0  0  0  0  0  0  0  0  0  0  0  0
    4.5981   -0.3660    0.0000 C   0  0  0  0  0  0  0  0  0  0  0  0
    3.7320    1.8660    0.0000 C   0  0  0  0  0  0  0  0  0  0  0  0
    2.2320    1.0000    0.0000 C   0  0  0  0  0  0  0  0  0  0  0  0
    4.5981   -1.3660    0.0000 C   0  0  0  0  0  0  0  0  0  0  0  0
    3.7320   -1.8660    0.0000 C   0  0  0  0  0  0  0  0  0  0  0  0
    4.7070    0.6015    0.0000 H   0  0  0  0  0  0  0  0  0  0  0  0
    4.7070    1.3985    0.0000 H   0  0  0  0  0  0  0  0  0  0  0  0
    3.8147    1.2120    0.0000 H   0  0  0  0  0  0  0  0  0  0  0  0
    3.1244    1.6106    0.0000 H   0  0  0  0  0  0  0  0  0  0  0  0
    4.2690    2.1760    0.0000 H   0  0  0  0  0  0  0  0  0  0  0  0
    3.4220    2.4030    0.0000 H   0  0  0  0  0  0  0  0  0  0  0  0
    3.1951    1.5560    0.0000 H   0  0  0  0  0  0  0  0  0  0  0  0
    2.2320    1.6200    0.0000 H   0  0  0  0  0  0  0  0  0  0  0  0
    1.6120    1.0000    0.0000 H   0  0  0  0  0  0  0  0  0  0  0  0
    2.2320    0.3800    0.0000 H   0  0  0  0  0  0  0  0  0  0  0  0
    2.3291   -1.6760    0.0000 H   0  0  0  0  0  0  0  0  0  0  0  0
    5.1350   -1.6760    0.0000 H   0  0  0  0  0  0  0  0  0  0  0  0
    3.7320   -2.4860    0.0000 H   0  0  0  0  0  0  0  0  0  0  0  0
  1  7  2  0  0  0  0 
  2  8  2  0  0  0  0 
  3  7  1  0  0  0  0 
  3 12  1  0  0  0  0 
  3 23  1  0  0  0  0 
  4  5  1  0  0  0  0 
  4  6  1  0  0  0  0 
  4  7  1  0  0  0  0 
  4  8  1  0  0  0  0 
  5  9  1  0  0  0  0 
  5 13  1  0  0  0  0 
  5 14  1  0  0  0  0 
  6 10  1  0  0  0  0 
  6 15  1  0  0  0  0 
  6 16  1  0  0  0  0 
  8 11  1  0  0  0  0 
  9 17  1  0  0  0  0 
  9 18  1  0  0  0  0 
  9 19  1  0  0  0  0 
 10 20  1  0  0  0  0 
 10 21  1  0  0  0  0 
 10 22  1  0  0  0  0 
 11 12  2  0  0  0  0 
 11 24  1  0  0  0  0 
 12 25  1  0  0  0  0 
M  END
> <cdk:Title>
4994

> <cdk:Remark>
null

> <PUBCHEM_COMPOUND_CID>
4994

> <PUBCHEM_COMPOUND_CANONICALIZED>
1

> <PUBCHEM_CACTVS_COMPLEXITY>
239

> <PUBCHEM_CACTVS_HBOND_ACCEPTOR>
2

> <PUBCHEM_CACTVS_HBOND_DONOR>
1

> <PUBCHEM_CACTVS_ROTATABLE_BOND>
2

> <PUBCHEM_CACTVS_SUBSKEYS>
AAADccByMAAAAAAAAAAAAAAAAAAAAAAAAAAgAAAAAAAAAAAAAAAAHgAQAAAADgTBgAQCAALAAACIAKFWUAAAAAAgAgAIAIEIAEgAABoIgAAEAAAAggAAAMAAAAALAAAAAAAAAAAAAAAAAAAAAAAAAAAAAA==

> <PUBCHEM_IUPAC_OPENEYE_NAME>
3,3-diethyl-1H-pyridine-2,4-dione

> <PUBCHEM_IUPAC_CAS_NAME>
3,3-diethyl-1H-pyridine-2,4-dione

> <PUBCHEM_IUPAC_NAME>
3,3-diethyl-1H-pyridine-2,4-dione

> <PUBCHEM_IUPAC_SYSTEMATIC_NAME>
3,3-diethyl-1H-pyridine-2,4-dione

> <PUBCHEM_IUPAC_TRADITIONAL_NAME>
3,3-diethyl-1H-pyridine-2,4-quinone

> <PUBCHEM_IUPAC_INCHI>
InChI=1S/C9H13NO2/c1-3-9(4-2)7(11)5-6-10-8(9)12/h5-6H,3-4H2,1-2H3,(H,10,12)

> <PUBCHEM_IUPAC_INCHIKEY>
NZASCBIBXNPDMH-UHFFFAOYSA-N

> <PUBCHEM_XLOGP3_AA>
1

> <PUBCHEM_EXACT_MASS>
167.094629

> <PUBCHEM_MOLECULAR_FORMULA>
C9H13NO2

> <PUBCHEM_MOLECULAR_WEIGHT>
167.20502

> <PUBCHEM_OPENEYE_CAN_SMILES>
CCC1(C(=O)C=CNC1=O)CC

> <PUBCHEM_OPENEYE_ISO_SMILES>
CCC1(C(=O)C=CNC1=O)CC

> <PUBCHEM_CACTVS_TPSA>
46.2

> <PUBCHEM_MONOISOTOPIC_WEIGHT>
167.094629

> <PUBCHEM_TOTAL_CHARGE>
0

> <PUBCHEM_HEAVY_ATOM_COUNT>
12

> <PUBCHEM_ATOM_DEF_STEREO_COUNT>
0

> <PUBCHEM_ATOM_UDEF_STEREO_COUNT>
0

> <PUBCHEM_BOND_DEF_STEREO_COUNT>
0

> <PUBCHEM_BOND_UDEF_STEREO_COUNT>
0

> <PUBCHEM_ISOTOPIC_ATOM_COUNT>
0

> <PUBCHEM_COMPONENT_COUNT>
1

> <PUBCHEM_CACTVS_TAUTO_COUNT>
4

> <PUBCHEM_COORDINATE_TYPE>
1
5
255

> <DRUG_ID>
w232

> <DRUG_NAME>
Pyrithyldione

$$$$
443945
  CDK     0927151942
null
 45 46  0  0  0  0  0  0  0  0999 V2000
    8.9842    3.6343    0.0000 Cl  0  0  0  0  0  0  0  0  0  0  0  0
    4.4086    4.7116    0.0000 O   0  0  0  0  0  0  0  0  0  0  0  0
    2.9747    3.8106    0.0000 N   0  0  0  0  0  0  0  0  0  0  0  0
    3.4747    1.6200    0.0000 N   0  0  0  0  0  0  0  0  0  0  0  0
    2.6703    6.4388    0.0000 N   0  0  0  0  0  0  0  0  0  0  0  0
    2.5409    4.7116    0.0000 C   0  0  0  0  0  0  0  0  0  0  0  0
    2.3513    3.0288    0.0000 C   0  0  0  0  0  0  0  0  0  0  0  0
    2.5738    2.0539    0.0000 C   0  0  0  0  0  0  0  0  0  0  0  0
    4.3757    2.0539    0.0000 C   0  0  0  0  0  0  0  0  0  0  0  0
    3.1042    5.5378    0.0000 C   0  0  0  0  0  0  0  0  0  0  0  0
    4.5982    3.0288    0.0000 C   0  0  0  0  0  0  0  0  0  0  0  0
    3.9748    3.8106    0.0000 C   0  0  0  0  0  0  0  0  0  0  0  0
    1.3608    3.3512    0.0000 C   0  0  0  0  0  0  0  0  0  0  0  0
    1.8212    1.3337    0.0000 C   0  0  0  0  0  0  0  0  0  0  0  0
    3.4747    0.6200    0.0000 C   0  0  0  0  0  0  0  0  0  0  0  0
    5.1283    1.3337    0.0000 C   0  0  0  0  0  0  0  0  0  0  0  0
    5.5887    3.3511    0.0000 C   0  0  0  0  0  0  0  0  0  0  0  0
    0.5917    2.6486    0.0000 C   0  0  0  0  0  0  0  0  0  0  0  0
    0.8235    1.6331    0.0000 C   0  0  0  0  0  0  0  0  0  0  0  0
    6.1259    1.6330    0.0000 C   0  0  0  0  0  0  0  0  0  0  0  0
    6.3578    2.6485    0.0000 C   0  0  0  0  0  0  0  0  0  0  0  0
    3.2336    7.2651    0.0000 C   0  0  0  0  0  0  0  0  0  0  0  0
    1.6731    6.5136    0.0000 C   0  0  0  0  0  0  0  0  0  0  0  0
    2.0970    5.1445    0.0000 H   0  0  0  0  0  0  0  0  0  0  0  0
    2.0375    4.3497    0.0000 H   0  0  0  0  0  0  0  0  0  0  0  0
    3.5480    5.1049    0.0000 H   0  0  0  0  0  0  0  0  0  0  0  0
    3.6076    5.8998    0.0000 H   0  0  0  0  0  0  0  0  0  0  0  0
    1.2298    3.9572    0.0000 H   0  0  0  0  0  0  0  0  0  0  0  0
    1.9662    0.7309    0.0000 H   0  0  0  0  0  0  0  0  0  0  0  0
    2.8547    0.6200    0.0000 H   0  0  0  0  0  0  0  0  0  0  0  0
    3.4747    0.0000    0.0000 H   0  0  0  0  0  0  0  0  0  0  0  0
    4.0947    0.6200    0.0000 H   0  0  0  0  0  0  0  0  0  0  0  0
    4.9833    0.7309    0.0000 H   0  0  0  0  0  0  0  0  0  0  0  0
    5.7197    3.9571    0.0000 H   0  0  0  0  0  0  0  0  0  0  0  0
    0.0000    2.8336    0.0000 H   0  0  0  0  0  0  0  0  0  0  0  0
    0.3707    1.2096    0.0000 H   0  0  0  0  0  0  0  0  0  0  0  0
    6.5788    1.2096    0.0000 H   0  0  0  0  0  0  0  0  0  0  0  0
    6.9495    2.8336    0.0000 H   0  0  0  0  0  0  0  0  0  0  0  0
    3.7459    6.9158    0.0000 H   0  0  0  0  0  0  0  0  0  0  0  0
    3.5829    7.7773    0.0000 H   0  0  0  0  0  0  0  0  0  0  0  0
    2.7214    7.6143    0.0000 H   0  0  0  0  0  0  0  0  0  0  0  0
    1.7195    7.1318    0.0000 H   0  0  0  0  0  0  0  0  0  0  0  0
    1.0549    6.5599    0.0000 H   0  0  0  0  0  0  0  0  0  0  0  0
    1.6268    5.8953    0.0000 H   0  0  0  0  0  0  0  0  0  0  0  0
    9.9842    3.6343    0.0000 H   0  0  0  0  0  0  0  0  0  0  0  0
  1 45  1  0  0  0  0 
  2 12  2  0  0  0  0 
  3  6  1  0  0  0  0 
  3  7  1  0  0  0  0 
  3 12  1  0  0  0  0 
  4  8  1  0  0  0  0 
  4  9  1  0  0  0  0 
  4 15  1  0  0  0  0 
  5 10  1  0  0  0  0 
  5 22  1  0  0  0  0 
  5 23  1  0  0  0  0 
  6 10  1  0  0  0  0 
  6 24  1  0  0  0  0 
  6 25  1  0  0  0  0 
  7  8  1  0  0  0  0 
  7 13  2  0  0  0  0 
  8 14  2  0  0  0  0 
  9 11  1  0  0  0  0 
  9 16  2  0  0  0  0 
 10 26  1  0  0  0  0 
 10 27  1  0  0  0  0 
 11 12  1  0  0  0  0 
 11 17  2  0  0  0  0 
 13 18  1  0  0  0  0 
 13 28  1  0  0  0  0 
 14 19  1  0  0  0  0 
 14 29  1  0  0  0  0 
 15 30  1  0  0  0  0 
 15 31  1  0  0  0  0 
 15 32  1  0  0  0  0 
 16 20  1  0  0  0  0 
 16 33  1  0  0  0  0 
 17 21  1  0  0  0  0 
 17 34  1  0  0  0  0 
 18 19  2  0  0  0  0 
 18 35  1  0  0  0  0 
 19 36  1  0  0  0  0 
 20 21  2  0  0  0  0 
 20 37  1  0  0  0  0 
 21 38  1  0  0  0  0 
 22 39  1  0  0  0  0 
 22 40  1  0  0  0  0 
 22 41  1  0  0  0  0 
 23 42  1  0  0  0  0 
 23 43  1  0  0  0  0 
 23 44  1  0  0  0  0 
M  END
> <cdk:Title>
443945

> <cdk:Remark>
null

> <PUBCHEM_COMPOUND_CID>
443945

> <PUBCHEM_COMPOUND_CANONICALIZED>
1

> <PUBCHEM_CACTVS_COMPLEXITY>
398

> <PUBCHEM_CACTVS_HBOND_ACCEPTOR>
3

> <PUBCHEM_CACTVS_HBOND_DONOR>
1

> <PUBCHEM_CACTVS_ROTATABLE_BOND>
3

> <PUBCHEM_CACTVS_SUBSKEYS>
AAADceB7IAAEAAAAAAAAAAAAAAAAAAAAAAAwYAAABYAAAAABQAAAHgAAAAAADAjBmAQywIMAAACIAiVSUACCAAAlAgAIiAEIdMgIYHrA1ZGUIYhghgDIyccYiACOAAAAAAACACAAAAAAAAQAQAAAAAAAAA==

> <PUBCHEM_IUPAC_OPENEYE_NAME>
5-[2-(dimethylamino)ethyl]-11-methyl-benzo[b][1,4]benzodiazepin-6-one;hydrochloride

> <PUBCHEM_IUPAC_CAS_NAME>
5-[2-(dimethylamino)ethyl]-11-methyl-6-benzo[b][1,4]benzodiazepinone;hydrochloride

> <PUBCHEM_IUPAC_NAME>
5-[2-(dimethylamino)ethyl]-11-methylbenzo[b][1,4]benzodiazepin-6-one;hydrochloride

> <PUBCHEM_IUPAC_SYSTEMATIC_NAME>
5-[2-(dimethylamino)ethyl]-11-methyl-benzo[b][1,4]benzodiazepin-6-one;hydrochloride

> <PUBCHEM_IUPAC_TRADITIONAL_NAME>
5-[2-(dimethylamino)ethyl]-11-methyl-benzo[b][1,4]benzodiazepin-6-one;hydrochloride

> <PUBCHEM_IUPAC_INCHI>
InChI=1S/C18H21N3O.ClH/c1-19(2)12-13-21-17-11-7-6-10-16(17)20(3)15-9-5-4-8-14(15)18(21)22;/h4-11H,12-13H2,1-3H3;1H

> <PUBCHEM_IUPAC_INCHIKEY>
RJPZIQRLRMWPRF-UHFFFAOYSA-N

> <PUBCHEM_EXACT_MASS>
331.14514

> <PUBCHEM_MOLECULAR_FORMULA>
C18H22ClN3O

> <PUBCHEM_MOLECULAR_WEIGHT>
331.83978

> <PUBCHEM_OPENEYE_CAN_SMILES>
CN1C2=CC=CC=C2C(=O)N(C3=CC=CC=C31)CCN(C)C.Cl

> <PUBCHEM_OPENEYE_ISO_SMILES>
CN1C2=CC=CC=C2C(=O)N(C3=CC=CC=C31)CCN(C)C.Cl

> <PUBCHEM_CACTVS_TPSA>
26.8

> <PUBCHEM_MONOISOTOPIC_WEIGHT>
331.14514

> <PUBCHEM_TOTAL_CHARGE>
0

> <PUBCHEM_HEAVY_ATOM_COUNT>
23

> <PUBCHEM_ATOM_DEF_STEREO_COUNT>
0

> <PUBCHEM_ATOM_UDEF_STEREO_COUNT>
0

> <PUBCHEM_BOND_DEF_STEREO_COUNT>
0

> <PUBCHEM_BOND_UDEF_STEREO_COUNT>
0

> <PUBCHEM_ISOTOPIC_ATOM_COUNT>
0

> <PUBCHEM_COMPONENT_COUNT>
2

> <PUBCHEM_CACTVS_TAUTO_COUNT>
1

> <PUBCHEM_COORDINATE_TYPE>
1
5
255

> <PUBCHEM_BONDANNOTATIONS>
11  17  8
13  18  8
14  19  8
16  20  8
17  21  8
18  19  8
20  21  8
7  13  8
7  8  8
8  14  8
9  11  8
9  16  8

> <DRUG_ID>
w233

> <DRUG_NAME>
Dibenzepin Hydrochloride

$$$$
5530
  CDK     0927151942
null
 21 22  0  0  0  0  0  0  0  0999 V2000
    4.2320    1.8730    0.0000 N   0  0  0  0  0  0  0  0  0  0  0  0
    2.8660    0.5070    0.0000 C   0  0  3  0  0  0  0  0  0  0  0  0
    3.3660    1.3730    0.0000 C   0  0  3  0  0  0  0  0  0  0  0  0
    2.3660    1.3730    0.0000 C   0  0  0  0  0  0  0  0  0  0  0  0
    2.8660   -0.4930    0.0000 C   0  0  0  0  0  0  0  0  0  0  0  0
    2.0000   -0.9930    0.0000 C   0  0  0  0  0  0  0  0  0  0  0  0
    3.7320   -0.9930    0.0000 C   0  0  0  0  0  0  0  0  0  0  0  0
    2.0000   -1.9930    0.0000 C   0  0  0  0  0  0  0  0  0  0  0  0
    3.7320   -1.9930    0.0000 C   0  0  0  0  0  0  0  0  0  0  0  0
    2.8660   -2.4930    0.0000 C   0  0  0  0  0  0  0  0  0  0  0  0
    3.6871    0.2870    0.0000 H   0  0  0  0  0  0  0  0  0  0  0  0
    3.1460    2.1940    0.0000 H   0  0  0  0  0  0  0  0  0  0  0  0
    2.2584    1.9836    0.0000 H   0  0  0  0  0  0  0  0  0  0  0  0
    1.7834    1.1610    0.0000 H   0  0  0  0  0  0  0  0  0  0  0  0
    4.2320    2.4930    0.0000 H   0  0  0  0  0  0  0  0  0  0  0  0
    4.7690    1.5630    0.0000 H   0  0  0  0  0  0  0  0  0  0  0  0
    1.4631   -0.6830    0.0000 H   0  0  0  0  0  0  0  0  0  0  0  0
    4.2690   -0.6830    0.0000 H   0  0  0  0  0  0  0  0  0  0  0  0
    1.4631   -2.3030    0.0000 H   0  0  0  0  0  0  0  0  0  0  0  0
    4.2690   -2.3030    0.0000 H   0  0  0  0  0  0  0  0  0  0  0  0
    2.8660   -3.1130    0.0000 H   0  0  0  0  0  0  0  0  0  0  0  0
  1  3  1  0  0  0  0 
  1 15  1  0  0  0  0 
  1 16  1  0  0  0  0 
  2  3  1  0  0  0  0 
  2  4  1  0  0  0  0 
  2  5  1  0  0  0  0 
  2 11  1  0  0  0  0 
  3  4  1  0  0  0  0 
  3 12  1  0  0  0  0 
  4 13  1  0  0  0  0 
  4 14  1  0  0  0  0 
  5  6  2  0  0  0  0 
  5  7  1  0  0  0  0 
  6  8  1  0  0  0  0 
  6 17  1  0  0  0  0 
  7  9  2  0  0  0  0 
  7 18  1  0  0  0  0 
  8 10  2  0  0  0  0 
  8 19  1  0  0  0  0 
  9 10  1  0  0  0  0 
  9 20  1  0  0  0  0 
 10 21  1  0  0  0  0 
M  END
> <cdk:Title>
5530

> <cdk:Remark>
null

> <PUBCHEM_COMPOUND_CID>
5530

> <PUBCHEM_COMPOUND_CANONICALIZED>
1

> <PUBCHEM_CACTVS_COMPLEXITY>
116

> <PUBCHEM_CACTVS_HBOND_ACCEPTOR>
1

> <PUBCHEM_CACTVS_HBOND_DONOR>
1

> <PUBCHEM_CACTVS_ROTATABLE_BOND>
1

> <PUBCHEM_CACTVS_SUBSKEYS>
AAADccByAAAAAAAAAAAAAAAAGAAAAAAAAAAwAAAAAAAAAAABAAAAHAAQAAAADSjBGAQwAIBAAACAAiBCAAACAAAgAAAIiIAAAIgIICKAkRGAIAAgkAAIiAcQgMAOgAAAAAAAAAAAAAAAAAAAAAAAAAAAAA==

> <PUBCHEM_IUPAC_OPENEYE_NAME>
2-phenylcyclopropanamine

> <PUBCHEM_IUPAC_CAS_NAME>
2-phenyl-1-cyclopropanamine

> <PUBCHEM_IUPAC_NAME>
2-phenylcyclopropan-1-amine

> <PUBCHEM_IUPAC_SYSTEMATIC_NAME>
2-phenylcyclopropan-1-amine

> <PUBCHEM_IUPAC_TRADITIONAL_NAME>
(2-phenylcyclopropyl)amine

> <PUBCHEM_IUPAC_INCHI>
InChI=1S/C9H11N/c10-9-6-8(9)7-4-2-1-3-5-7/h1-5,8-9H,6,10H2

> <PUBCHEM_IUPAC_INCHIKEY>
AELCINSCMGFISI-UHFFFAOYSA-N

> <PUBCHEM_XLOGP3>
1.5

> <PUBCHEM_EXACT_MASS>
133.089149

> <PUBCHEM_MOLECULAR_FORMULA>
C9H11N

> <PUBCHEM_MOLECULAR_WEIGHT>
133.19034

> <PUBCHEM_OPENEYE_CAN_SMILES>
C1C(C1N)C2=CC=CC=C2

> <PUBCHEM_OPENEYE_ISO_SMILES>
C1C(C1N)C2=CC=CC=C2

> <PUBCHEM_CACTVS_TPSA>
26

> <PUBCHEM_MONOISOTOPIC_WEIGHT>
133.089149

> <PUBCHEM_TOTAL_CHARGE>
0

> <PUBCHEM_HEAVY_ATOM_COUNT>
10

> <PUBCHEM_ATOM_DEF_STEREO_COUNT>
0

> <PUBCHEM_ATOM_UDEF_STEREO_COUNT>
2

> <PUBCHEM_BOND_DEF_STEREO_COUNT>
0

> <PUBCHEM_BOND_UDEF_STEREO_COUNT>
0

> <PUBCHEM_ISOTOPIC_ATOM_COUNT>
0

> <PUBCHEM_COMPONENT_COUNT>
1

> <PUBCHEM_CACTVS_TAUTO_COUNT>
1

> <PUBCHEM_COORDINATE_TYPE>
1
5
255

> <PUBCHEM_BONDANNOTATIONS>
2  11  3
3  12  3
5  6  8
5  7  8
6  8  8
7  9  8
8  10  8
9  10  8

> <DRUG_ID>
w234

> <DRUG_NAME>
Tranylcypromine

$$$$
4184
  CDK     0927151942
null
 40 43  0  0  0  0  0  0  0  0999 V2000
    4.5438   -0.7951    0.0000 N   0  0  3  0  0  0  0  0  0  0  0  0
    2.8430   -1.9740    0.0000 N   0  0  3  0  0  0  0  0  0  0  0  0
    3.6428   -0.3612    0.0000 C   0  0  3  0  0  0  0  0  0  0  0  0
    2.7732   -0.9347    0.0000 C   0  0  0  0  0  0  0  0  0  0  0  0
    4.6376   -1.8325    0.0000 C   0  0  0  0  0  0  0  0  0  0  0  0
    3.4203    0.6137    0.0000 C   0  0  0  0  0  0  0  0  0  0  0  0
    3.7815   -2.4259    0.0000 C   0  0  0  0  0  0  0  0  0  0  0  0
    5.4447   -0.3612    0.0000 C   0  0  0  0  0  0  0  0  0  0  0  0
    4.0438    1.3955    0.0000 C   0  0  0  0  0  0  0  0  0  0  0  0
    5.0438    1.3955    0.0000 C   0  0  0  0  0  0  0  0  0  0  0  0
    5.6673    0.6137    0.0000 C   0  0  0  0  0  0  0  0  0  0  0  0
    2.0146   -2.5341    0.0000 C   0  0  0  0  0  0  0  0  0  0  0  0
    2.3880    0.7530    0.0000 C   0  0  0  0  0  0  0  0  0  0  0  0
    6.1973   -1.0814    0.0000 C   0  0  0  0  0  0  0  0  0  0  0  0
    3.6782    2.3709    0.0000 C   0  0  0  0  0  0  0  0  0  0  0  0
    6.6578    0.9360    0.0000 C   0  0  0  0  0  0  0  0  0  0  0  0
    2.0000    1.7197    0.0000 C   0  0  0  0  0  0  0  0  0  0  0  0
    2.6494    2.5341    0.0000 C   0  0  0  0  0  0  0  0  0  0  0  0
    7.1950   -0.7821    0.0000 C   0  0  0  0  0  0  0  0  0  0  0  0
    7.4268    0.2334    0.0000 C   0  0  0  0  0  0  0  0  0  0  0  0
    3.0674   -0.1303    0.0000 H   0  0  0  0  0  0  0  0  0  0  0  0
    2.5255   -0.3663    0.0000 H   0  0  0  0  0  0  0  0  0  0  0  0
    2.1708   -1.0815    0.0000 H   0  0  0  0  0  0  0  0  0  0  0  0
    4.8984   -2.3950    0.0000 H   0  0  0  0  0  0  0  0  0  0  0  0
    5.2364   -1.6718    0.0000 H   0  0  0  0  0  0  0  0  0  0  0  0
    3.4209   -2.9302    0.0000 H   0  0  0  0  0  0  0  0  0  0  0  0
    4.2167   -2.8675    0.0000 H   0  0  0  0  0  0  0  0  0  0  0  0
    5.6024    1.6645    0.0000 H   0  0  0  0  0  0  0  0  0  0  0  0
    4.9058    2.0000    0.0000 H   0  0  0  0  0  0  0  0  0  0  0  0
    1.6674   -2.0205    0.0000 H   0  0  0  0  0  0  0  0  0  0  0  0
    1.5010   -2.8814    0.0000 H   0  0  0  0  0  0  0  0  0  0  0  0
    2.3619   -3.0477    0.0000 H   0  0  0  0  0  0  0  0  0  0  0  0
    2.0071    0.2639    0.0000 H   0  0  0  0  0  0  0  0  0  0  0  0
    6.0524   -1.6842    0.0000 H   0  0  0  0  0  0  0  0  0  0  0  0
    4.0704    2.8511    0.0000 H   0  0  0  0  0  0  0  0  0  0  0  0
    6.7887    1.5420    0.0000 H   0  0  0  0  0  0  0  0  0  0  0  0
    1.3866    1.8098    0.0000 H   0  0  0  0  0  0  0  0  0  0  0  0
    2.4252    3.1121    0.0000 H   0  0  0  0  0  0  0  0  0  0  0  0
    7.6478   -1.2055    0.0000 H   0  0  0  0  0  0  0  0  0  0  0  0
    8.0185    0.4185    0.0000 H   0  0  0  0  0  0  0  0  0  0  0  0
  1  3  1  0  0  0  0 
  1  5  1  0  0  0  0 
  1  8  1  0  0  0  0 
  2  4  1  0  0  0  0 
  2  7  1  0  0  0  0 
  2 12  1  0  0  0  0 
  3  4  1  0  0  0  0 
  3  6  1  0  0  0  0 
  3 21  1  0  0  0  0 
  4 22  1  0  0  0  0 
  4 23  1  0  0  0  0 
  5  7  1  0  0  0  0 
  5 24  1  0  0  0  0 
  5 25  1  0  0  0  0 
  6  9  1  0  0  0  0 
  6 13  2  0  0  0  0 
  7 26  1  0  0  0  0 
  7 27  1  0  0  0  0 
  8 11  1  0  0  0  0 
  8 14  2  0  0  0  0 
  9 10  1  0  0  0  0 
  9 15  2  0  0  0  0 
 10 11  1  0  0  0  0 
 10 28  1  0  0  0  0 
 10 29  1  0  0  0  0 
 11 16  2  0  0  0  0 
 12 30  1  0  0  0  0 
 12 31  1  0  0  0  0 
 12 32  1  0  0  0  0 
 13 17  1  0  0  0  0 
 13 33  1  0  0  0  0 
 14 19  1  0  0  0  0 
 14 34  1  0  0  0  0 
 15 18  1  0  0  0  0 
 15 35  1  0  0  0  0 
 16 20  1  0  0  0  0 
 16 36  1  0  0  0  0 
 17 18  2  0  0  0  0 
 17 37  1  0  0  0  0 
 18 38  1  0  0  0  0 
 19 20  2  0  0  0  0 
 19 39  1  0  0  0  0 
 20 40  1  0  0  0  0 
M  END
> <cdk:Title>
4184

> <cdk:Remark>
null

> <PUBCHEM_COMPOUND_CID>
4184

> <PUBCHEM_COMPOUND_CANONICALIZED>
1

> <PUBCHEM_CACTVS_COMPLEXITY>
342

> <PUBCHEM_CACTVS_HBOND_ACCEPTOR>
2

> <PUBCHEM_CACTVS_HBOND_DONOR>
0

> <PUBCHEM_CACTVS_ROTATABLE_BOND>
0

> <PUBCHEM_CACTVS_SUBSKEYS>
AAADceB7AAAAAAAAAAAAAAAAAAAAAAAAAAA8YIAABYAAAAABQAAAHAAAAAAADCjBGAQywIMAAACAAiRCQACCAAAhAgAIiAAIZIgIYCLAkZGUIAhggADIyAcQgMAOgAAAAAASAAAAAAAAACQAAAAAAAAAAA==

> <PUBCHEM_IUPAC_INCHI>
InChI=1S/C18H20N2/c1-19-10-11-20-17-9-5-3-7-15(17)12-14-6-2-4-8-16(14)18(20)13-19/h2-9,18H,10-13H2,1H3

> <PUBCHEM_IUPAC_INCHIKEY>
UEQUQVLFIPOEMF-UHFFFAOYSA-N

> <PUBCHEM_XLOGP3_AA>
3.4

> <PUBCHEM_EXACT_MASS>
264.162649

> <PUBCHEM_MOLECULAR_FORMULA>
C18H20N2

> <PUBCHEM_MOLECULAR_WEIGHT>
264.3648

> <PUBCHEM_OPENEYE_CAN_SMILES>
CN1CCN2C(C1)C3=CC=CC=C3CC4=CC=CC=C42

> <PUBCHEM_OPENEYE_ISO_SMILES>
CN1CCN2C(C1)C3=CC=CC=C3CC4=CC=CC=C42

> <PUBCHEM_CACTVS_TPSA>
6.5

> <PUBCHEM_MONOISOTOPIC_WEIGHT>
264.162649

> <PUBCHEM_TOTAL_CHARGE>
0

> <PUBCHEM_HEAVY_ATOM_COUNT>
20

> <PUBCHEM_ATOM_DEF_STEREO_COUNT>
0

> <PUBCHEM_ATOM_UDEF_STEREO_COUNT>
1

> <PUBCHEM_BOND_DEF_STEREO_COUNT>
0

> <PUBCHEM_BOND_UDEF_STEREO_COUNT>
0

> <PUBCHEM_ISOTOPIC_ATOM_COUNT>
0

> <PUBCHEM_COMPONENT_COUNT>
1

> <PUBCHEM_CACTVS_TAUTO_COUNT>
1

> <PUBCHEM_COORDINATE_TYPE>
1
5
255

> <PUBCHEM_BONDANNOTATIONS>
11  16  8
13  17  8
14  19  8
15  18  8
16  20  8
17  18  8
19  20  8
3  4  3
6  13  8
6  9  8
8  11  8
8  14  8
9  15  8

> <DRUG_ID>
w235

> <DRUG_NAME>
Mianserin

$$$$
444
  CDK     0927151942
null
 34 34  0  0  0  0  0  0  0  0999 V2000
    2.0000   -2.9330    0.0000 Cl  0  0  0  0  0  0  0  0  0  0  0  0
    2.8660    0.5670    0.0000 O   0  0  0  0  0  0  0  0  0  0  0  0
    4.5981    1.5670    0.0000 N   0  0  0  0  0  0  0  0  0  0  0  0
    5.4641    2.0670    0.0000 C   0  0  0  0  0  0  0  0  0  0  0  0
    4.5981    0.5670    0.0000 C   0  0  3  0  0  0  0  0  0  0  0  0
    6.3301    2.5670    0.0000 C   0  0  0  0  0  0  0  0  0  0  0  0
    4.9641    2.9330    0.0000 C   0  0  0  0  0  0  0  0  0  0  0  0
    5.9641    1.2010    0.0000 C   0  0  0  0  0  0  0  0  0  0  0  0
    5.4641    0.0670    0.0000 C   0  0  0  0  0  0  0  0  0  0  0  0
    3.7320    0.0670    0.0000 C   0  0  0  0  0  0  0  0  0  0  0  0
    3.7320   -0.9330    0.0000 C   0  0  0  0  0  0  0  0  0  0  0  0
    2.8660   -1.4330    0.0000 C   0  0  0  0  0  0  0  0  0  0  0  0
    4.5981   -1.4330    0.0000 C   0  0  0  0  0  0  0  0  0  0  0  0
    2.8660   -2.4330    0.0000 C   0  0  0  0  0  0  0  0  0  0  0  0
    4.5981   -2.4330    0.0000 C   0  0  0  0  0  0  0  0  0  0  0  0
    3.7320   -2.9330    0.0000 C   0  0  0  0  0  0  0  0  0  0  0  0
    4.0611    1.8770    0.0000 H   0  0  0  0  0  0  0  0  0  0  0  0
    5.1350    0.8770    0.0000 H   0  0  0  0  0  0  0  0  0  0  0  0
    6.6401    2.0300    0.0000 H   0  0  0  0  0  0  0  0  0  0  0  0
    6.8671    2.8770    0.0000 H   0  0  0  0  0  0  0  0  0  0  0  0
    6.0201    3.1039    0.0000 H   0  0  0  0  0  0  0  0  0  0  0  0
    5.5010    3.2430    0.0000 H   0  0  0  0  0  0  0  0  0  0  0  0
    4.6541    3.4700    0.0000 H   0  0  0  0  0  0  0  0  0  0  0  0
    4.4272    2.6230    0.0000 H   0  0  0  0  0  0  0  0  0  0  0  0
    5.4272    0.8910    0.0000 H   0  0  0  0  0  0  0  0  0  0  0  0
    6.2741    0.6640    0.0000 H   0  0  0  0  0  0  0  0  0  0  0  0
    6.5010    1.5110    0.0000 H   0  0  0  0  0  0  0  0  0  0  0  0
    5.1541   -0.4699    0.0000 H   0  0  0  0  0  0  0  0  0  0  0  0
    6.0010   -0.2430    0.0000 H   0  0  0  0  0  0  0  0  0  0  0  0
    5.7741    0.6039    0.0000 H   0  0  0  0  0  0  0  0  0  0  0  0
    2.3291   -1.1230    0.0000 H   0  0  0  0  0  0  0  0  0  0  0  0
    5.1350   -1.1230    0.0000 H   0  0  0  0  0  0  0  0  0  0  0  0
    5.1350   -2.7430    0.0000 H   0  0  0  0  0  0  0  0  0  0  0  0
    3.7320   -3.5530    0.0000 H   0  0  0  0  0  0  0  0  0  0  0  0
  1 14  1  0  0  0  0 
  2 10  2  0  0  0  0 
  3  4  1  0  0  0  0 
  3  5  1  0  0  0  0 
  3 17  1  0  0  0  0 
  4  6  1  0  0  0  0 
  4  7  1  0  0  0  0 
  4  8  1  0  0  0  0 
  5  9  1  0  0  0  0 
  5 10  1  0  0  0  0 
  5 18  1  0  0  0  0 
  6 19  1  0  0  0  0 
  6 20  1  0  0  0  0 
  6 21  1  0  0  0  0 
  7 22  1  0  0  0  0 
  7 23  1  0  0  0  0 
  7 24  1  0  0  0  0 
  8 25  1  0  0  0  0 
  8 26  1  0  0  0  0 
  8 27  1  0  0  0  0 
  9 28  1  0  0  0  0 
  9 29  1  0  0  0  0 
  9 30  1  0  0  0  0 
 10 11  1  0  0  0  0 
 11 12  2  0  0  0  0 
 11 13  1  0  0  0  0 
 12 14  1  0  0  0  0 
 12 31  1  0  0  0  0 
 13 15  2  0  0  0  0 
 13 32  1  0  0  0  0 
 14 16  2  0  0  0  0 
 15 16  1  0  0  0  0 
 15 33  1  0  0  0  0 
 16 34  1  0  0  0  0 
M  END
> <cdk:Title>
444

> <cdk:Remark>
null

> <PUBCHEM_COMPOUND_CID>
444

> <PUBCHEM_COMPOUND_CANONICALIZED>
1

> <PUBCHEM_CACTVS_COMPLEXITY>
247

> <PUBCHEM_CACTVS_HBOND_ACCEPTOR>
2

> <PUBCHEM_CACTVS_HBOND_DONOR>
1

> <PUBCHEM_CACTVS_ROTATABLE_BOND>
4

> <PUBCHEM_CACTVS_SUBSKEYS>
AAADceByIAAEAAAAAAAAAAAAAAAAAAAAAAAwAAAAAAAAAAABAAAAHgIQAAAADK7BmCQyAILAAACIAqBSAAACAAAkBQAIiIGIAsgIIDKBlzGEIQAgkACIiYcYiICOAAAAIAAAAAAAAABAAAAAAAAAAAAAAA==

> <PUBCHEM_IUPAC_OPENEYE_NAME>
2-(tert-butylamino)-1-(3-chlorophenyl)propan-1-one

> <PUBCHEM_IUPAC_CAS_NAME>
2-(tert-butylamino)-1-(3-chlorophenyl)-1-propanone

> <PUBCHEM_IUPAC_NAME>
2-(tert-butylamino)-1-(3-chlorophenyl)propan-1-one

> <PUBCHEM_IUPAC_SYSTEMATIC_NAME>
2-(tert-butylamino)-1-(3-chlorophenyl)propan-1-one

> <PUBCHEM_IUPAC_TRADITIONAL_NAME>
2-(tert-butylamino)-1-(3-chlorophenyl)propan-1-one

> <PUBCHEM_IUPAC_INCHI>
InChI=1S/C13H18ClNO/c1-9(15-13(2,3)4)12(16)10-6-5-7-11(14)8-10/h5-9,15H,1-4H3

> <PUBCHEM_IUPAC_INCHIKEY>
SNPPWIUOZRMYNY-UHFFFAOYSA-N

> <PUBCHEM_XLOGP3_AA>
3.2

> <PUBCHEM_EXACT_MASS>
239.107692

> <PUBCHEM_MOLECULAR_FORMULA>
C13H18ClNO

> <PUBCHEM_MOLECULAR_WEIGHT>
239.74112

> <PUBCHEM_OPENEYE_CAN_SMILES>
CC(C(=O)C1=CC(=CC=C1)Cl)NC(C)(C)C

> <PUBCHEM_OPENEYE_ISO_SMILES>
CC(C(=O)C1=CC(=CC=C1)Cl)NC(C)(C)C

> <PUBCHEM_CACTVS_TPSA>
29.1

> <PUBCHEM_MONOISOTOPIC_WEIGHT>
239.107692

> <PUBCHEM_TOTAL_CHARGE>
0

> <PUBCHEM_HEAVY_ATOM_COUNT>
16

> <PUBCHEM_ATOM_DEF_STEREO_COUNT>
0

> <PUBCHEM_ATOM_UDEF_STEREO_COUNT>
1

> <PUBCHEM_BOND_DEF_STEREO_COUNT>
0

> <PUBCHEM_BOND_UDEF_STEREO_COUNT>
0

> <PUBCHEM_ISOTOPIC_ATOM_COUNT>
0

> <PUBCHEM_COMPONENT_COUNT>
1

> <PUBCHEM_CACTVS_TAUTO_COUNT>
2

> <PUBCHEM_COORDINATE_TYPE>
1
5
255

> <PUBCHEM_BONDANNOTATIONS>
11  12  8
11  13  8
12  14  8
13  15  8
14  16  8
15  16  8
5  9  3

> <DRUG_ID>
w236

> <DRUG_NAME>
Bupropion

$$$$
102907
  CDK     0927151942
null
 46 48  0  0  0  0  0  0  0  0999 V2000
    8.4437    3.3832    0.0000 Cl  0  0  0  0  0  0  0  0  0  0  0  0
    3.2018    0.6546    0.0000 S   0  0  0  0  0  0  0  0  0  0  0  0
    4.9338    5.6546    0.0000 N   0  0  3  0  0  0  0  0  0  0  0  0
    3.2018    2.6546    0.0000 N   0  0  0  0  0  0  0  0  0  0  0  0
    4.0678    4.1546    0.0000 C   0  0  3  0  0  0  0  0  0  0  0  0
    4.9338    3.6546    0.0000 C   0  0  0  0  0  0  0  0  0  0  0  0
    4.0678    5.1546    0.0000 C   0  0  0  0  0  0  0  0  0  0  0  0
    5.7998    4.1546    0.0000 C   0  0  0  0  0  0  0  0  0  0  0  0
    3.2018    3.6546    0.0000 C   0  0  0  0  0  0  0  0  0  0  0  0
    5.7998    5.1546    0.0000 C   0  0  0  0  0  0  0  0  0  0  0  0
    4.9338    6.6546    0.0000 C   0  0  0  0  0  0  0  0  0  0  0  0
    4.0678    2.1546    0.0000 C   0  0  0  0  0  0  0  0  0  0  0  0
    2.3358    2.1546    0.0000 C   0  0  0  0  0  0  0  0  0  0  0  0
    4.0678    1.1546    0.0000 C   0  0  0  0  0  0  0  0  0  0  0  0
    2.3358    1.1546    0.0000 C   0  0  0  0  0  0  0  0  0  0  0  0
    1.4418    2.6893    0.0000 C   0  0  0  0  0  0  0  0  0  0  0  0
    4.9617    2.6893    0.0000 C   0  0  0  0  0  0  0  0  0  0  0  0
    1.4418    0.6200    0.0000 C   0  0  0  0  0  0  0  0  0  0  0  0
    4.9617    0.6200    0.0000 C   0  0  0  0  0  0  0  0  0  0  0  0
    0.5357    2.1754    0.0000 C   0  0  0  0  0  0  0  0  0  0  0  0
    5.8678    2.1754    0.0000 C   0  0  0  0  0  0  0  0  0  0  0  0
    0.5357    1.1338    0.0000 C   0  0  0  0  0  0  0  0  0  0  0  0
    5.8678    1.1338    0.0000 C   0  0  0  0  0  0  0  0  0  0  0  0
    3.5309    4.4646    0.0000 H   0  0  0  0  0  0  0  0  0  0  0  0
    4.5353    3.1797    0.0000 H   0  0  0  0  0  0  0  0  0  0  0  0
    5.3324    3.1797    0.0000 H   0  0  0  0  0  0  0  0  0  0  0  0
    3.8557    5.7372    0.0000 H   0  0  0  0  0  0  0  0  0  0  0  0
    3.4572    5.0470    0.0000 H   0  0  0  0  0  0  0  0  0  0  0  0
    6.0119    3.5720    0.0000 H   0  0  0  0  0  0  0  0  0  0  0  0
    6.4104    4.2623    0.0000 H   0  0  0  0  0  0  0  0  0  0  0  0
    2.9897    4.2372    0.0000 H   0  0  0  0  0  0  0  0  0  0  0  0
    2.5912    3.5470    0.0000 H   0  0  0  0  0  0  0  0  0  0  0  0
    6.4104    5.0470    0.0000 H   0  0  0  0  0  0  0  0  0  0  0  0
    6.0119    5.7372    0.0000 H   0  0  0  0  0  0  0  0  0  0  0  0
    5.5538    6.6546    0.0000 H   0  0  0  0  0  0  0  0  0  0  0  0
    4.9338    7.2746    0.0000 H   0  0  0  0  0  0  0  0  0  0  0  0
    4.3138    6.6546    0.0000 H   0  0  0  0  0  0  0  0  0  0  0  0
    1.4490    3.3092    0.0000 H   0  0  0  0  0  0  0  0  0  0  0  0
    4.9546    3.3092    0.0000 H   0  0  0  0  0  0  0  0  0  0  0  0
    1.4490    0.0000    0.0000 H   0  0  0  0  0  0  0  0  0  0  0  0
    4.9546    0.0000    0.0000 H   0  0  0  0  0  0  0  0  0  0  0  0
    6.4035    2.4875    0.0000 H   0  0  0  0  0  0  0  0  0  0  0  0
    0.0000    2.4875    0.0000 H   0  0  0  0  0  0  0  0  0  0  0  0
    0.0000    0.8217    0.0000 H   0  0  0  0  0  0  0  0  0  0  0  0
    6.4035    0.8217    0.0000 H   0  0  0  0  0  0  0  0  0  0  0  0
    9.4437    3.3832    0.0000 H   0  0  0  0  0  0  0  0  0  0  0  0
  1 46  1  0  0  0  0 
  2 14  1  0  0  0  0 
  2 15  1  0  0  0  0 
  3  7  1  0  0  0  0 
  3 10  1  0  0  0  0 
  3 11  1  0  0  0  0 
  4  9  1  0  0  0  0 
  4 12  1  0  0  0  0 
  4 13  1  0  0  0  0 
  5  6  1  0  0  0  0 
  5  7  1  0  0  0  0 
  5  9  1  0  0  0  0 
  5 24  1  0  0  0  0 
  6  8  1  0  0  0  0 
  6 25  1  0  0  0  0 
  6 26  1  0  0  0  0 
  7 27  1  0  0  0  0 
  7 28  1  0  0  0  0 
  8 10  1  0  0  0  0 
  8 29  1  0  0  0  0 
  8 30  1  0  0  0  0 
  9 31  1  0  0  0  0 
  9 32  1  0  0  0  0 
 10 33  1  0  0  0  0 
 10 34  1  0  0  0  0 
 11 35  1  0  0  0  0 
 11 36  1  0  0  0  0 
 11 37  1  0  0  0  0 
 12 14  1  0  0  0  0 
 12 17  2  0  0  0  0 
 13 15  1  0  0  0  0 
 13 16  2  0  0  0  0 
 14 19  2  0  0  0  0 
 15 18  2  0  0  0  0 
 16 20  1  0  0  0  0 
 16 38  1  0  0  0  0 
 17 21  1  0  0  0  0 
 17 39  1  0  0  0  0 
 18 22  1  0  0  0  0 
 18 40  1  0  0  0  0 
 19 23  1  0  0  0  0 
 19 41  1  0  0  0  0 
 20 22  2  0  0  0  0 
 20 43  1  0  0  0  0 
 21 23  2  0  0  0  0 
 21 42  1  0  0  0  0 
 22 44  1  0  0  0  0 
 23 45  1  0  0  0  0 
M  END
> <cdk:Title>
102907

> <cdk:Remark>
null

> <PUBCHEM_COMPOUND_CID>
102907

> <PUBCHEM_COMPOUND_CANONICALIZED>
1

> <PUBCHEM_CACTVS_COMPLEXITY>
352

> <PUBCHEM_CACTVS_HBOND_ACCEPTOR>
3

> <PUBCHEM_CACTVS_HBOND_DONOR>
1

> <PUBCHEM_CACTVS_ROTATABLE_BOND>
2

> <PUBCHEM_CACTVS_SUBSKEYS>
AAADceB7AABEAAAAAAAAAAAAAAAAAAAAAAA8eIEAAAAAAACxQAAAHAQAAAAADQjBUAQywYMAAAiAACRCQACCAAAhChAIiBwIZIgIIGLg0ZGEIAhggADoyAcQAAAMAAAAAAAAAQAAAAAAAAACAAAAAAAAAA==

> <PUBCHEM_IUPAC_OPENEYE_NAME>
10-[(1-methyl-3-piperidyl)methyl]phenothiazine;hydrochloride

> <PUBCHEM_IUPAC_CAS_NAME>
10-[(1-methyl-3-piperidinyl)methyl]phenothiazine;hydrochloride

> <PUBCHEM_IUPAC_NAME>
10-[(1-methylpiperidin-3-yl)methyl]phenothiazine;hydrochloride

> <PUBCHEM_IUPAC_SYSTEMATIC_NAME>
10-[(1-methylpiperidin-3-yl)methyl]phenothiazine;hydrochloride

> <PUBCHEM_IUPAC_TRADITIONAL_NAME>
10-[(1-methyl-3-piperidyl)methyl]phenothiazine;hydrochloride

> <PUBCHEM_IUPAC_INCHI>
InChI=1S/C19H22N2S.ClH/c1-20-12-6-7-15(13-20)14-21-16-8-2-4-10-18(16)22-19-11-5-3-9-17(19)21;/h2-5,8-11,15H,6-7,12-14H2,1H3;1H

> <PUBCHEM_IUPAC_INCHIKEY>
RLCFKYRNUBRPIK-UHFFFAOYSA-N

> <PUBCHEM_EXACT_MASS>
346.127047

> <PUBCHEM_MOLECULAR_FORMULA>
C19H23ClN2S

> <PUBCHEM_MOLECULAR_WEIGHT>
346.91732

> <PUBCHEM_OPENEYE_CAN_SMILES>
CN1CCCC(C1)CN2C3=CC=CC=C3SC4=CC=CC=C42.Cl

> <PUBCHEM_OPENEYE_ISO_SMILES>
CN1CCCC(C1)CN2C3=CC=CC=C3SC4=CC=CC=C42.Cl

> <PUBCHEM_CACTVS_TPSA>
31.8

> <PUBCHEM_MONOISOTOPIC_WEIGHT>
346.127047

> <PUBCHEM_TOTAL_CHARGE>
0

> <PUBCHEM_HEAVY_ATOM_COUNT>
23

> <PUBCHEM_ATOM_DEF_STEREO_COUNT>
0

> <PUBCHEM_ATOM_UDEF_STEREO_COUNT>
1

> <PUBCHEM_BOND_DEF_STEREO_COUNT>
0

> <PUBCHEM_BOND_UDEF_STEREO_COUNT>
0

> <PUBCHEM_ISOTOPIC_ATOM_COUNT>
0

> <PUBCHEM_COMPONENT_COUNT>
2

> <PUBCHEM_CACTVS_TAUTO_COUNT>
1

> <PUBCHEM_COORDINATE_TYPE>
1
5
255

> <PUBCHEM_BONDANNOTATIONS>
12  14  8
12  17  8
13  15  8
13  16  8
14  19  8
15  18  8
16  20  8
17  21  8
18  22  8
19  23  8
20  22  8
21  23  8
5  9  3

> <DRUG_ID>
w237

> <DRUG_NAME>
Mepazine Hydrochloride

$$$$
36109
  CDK     0927151942
null
 38 39  0  0  0  0  0  0  0  0999 V2000
    2.8660    0.0000    0.0000 O   0  0  0  0  0  0  0  0  0  0  0  0
    4.5981    0.0000    0.0000 O   0  0  0  0  0  0  0  0  0  0  0  0
    2.8660    2.0000    0.0000 N   0  0  0  0  0  0  0  0  0  0  0  0
    3.7320    1.5000    0.0000 C   0  0  0  0  0  0  0  0  0  0  0  0
    3.7320    0.5000    0.0000 C   0  0  0  0  0  0  0  0  0  0  0  0
    2.8660    3.0000    0.0000 C   0  0  0  0  0  0  0  0  0  0  0  0
    2.0000    1.5000    0.0000 C   0  0  0  0  0  0  0  0  0  0  0  0
    2.8660   -1.0000    0.0000 C   0  0  0  0  0  0  0  0  0  0  0  0
    5.4641    0.5000    0.0000 C   0  0  0  0  0  0  0  0  0  0  0  0
    5.4641    1.5000    0.0000 C   0  0  0  0  0  0  0  0  0  0  0  0
    2.0000   -1.5000    0.0000 C   0  0  0  0  0  0  0  0  0  0  0  0
    6.3301    0.0000    0.0000 C   0  0  0  0  0  0  0  0  0  0  0  0
    3.7320   -1.5000    0.0000 C   0  0  0  0  0  0  0  0  0  0  0  0
    2.0000   -2.5000    0.0000 C   0  0  0  0  0  0  0  0  0  0  0  0
    6.3301    2.0000    0.0000 C   0  0  0  0  0  0  0  0  0  0  0  0
    3.7320   -2.5000    0.0000 C   0  0  0  0  0  0  0  0  0  0  0  0
    7.1962    0.5000    0.0000 C   0  0  0  0  0  0  0  0  0  0  0  0
    2.8660   -3.0000    0.0000 C   0  0  0  0  0  0  0  0  0  0  0  0
    7.1962    1.5000    0.0000 C   0  0  0  0  0  0  0  0  0  0  0  0
    4.3426    1.3923    0.0000 H   0  0  0  0  0  0  0  0  0  0  0  0
    3.9441    2.0826    0.0000 H   0  0  0  0  0  0  0  0  0  0  0  0
    3.7320   -0.1200    0.0000 H   0  0  0  0  0  0  0  0  0  0  0  0
    3.4860    3.0000    0.0000 H   0  0  0  0  0  0  0  0  0  0  0  0
    2.8660    3.6200    0.0000 H   0  0  0  0  0  0  0  0  0  0  0  0
    2.2460    3.0000    0.0000 H   0  0  0  0  0  0  0  0  0  0  0  0
    1.6900    2.0369    0.0000 H   0  0  0  0  0  0  0  0  0  0  0  0
    1.4631    1.1900    0.0000 H   0  0  0  0  0  0  0  0  0  0  0  0
    2.3100    0.9631    0.0000 H   0  0  0  0  0  0  0  0  0  0  0  0
    4.9272    1.8100    0.0000 H   0  0  0  0  0  0  0  0  0  0  0  0
    1.4631   -1.1900    0.0000 H   0  0  0  0  0  0  0  0  0  0  0  0
    6.3301   -0.6200    0.0000 H   0  0  0  0  0  0  0  0  0  0  0  0
    4.2690   -1.1900    0.0000 H   0  0  0  0  0  0  0  0  0  0  0  0
    1.4631   -2.8100    0.0000 H   0  0  0  0  0  0  0  0  0  0  0  0
    6.3301    2.6200    0.0000 H   0  0  0  0  0  0  0  0  0  0  0  0
    4.2690   -2.8100    0.0000 H   0  0  0  0  0  0  0  0  0  0  0  0
    7.7331    0.1900    0.0000 H   0  0  0  0  0  0  0  0  0  0  0  0
    2.8660   -3.6200    0.0000 H   0  0  0  0  0  0  0  0  0  0  0  0
    7.7331    1.8100    0.0000 H   0  0  0  0  0  0  0  0  0  0  0  0
  1  5  1  0  0  0  0 
  1  8  1  0  0  0  0 
  2  5  1  0  0  0  0 
  2  9  1  0  0  0  0 
  3  4  1  0  0  0  0 
  3  6  1  0  0  0  0 
  3  7  1  0  0  0  0 
  4  5  1  0  0  0  0 
  4 20  1  0  0  0  0 
  4 21  1  0  0  0  0 
  5 22  1  0  0  0  0 
  6 23  1  0  0  0  0 
  6 24  1  0  0  0  0 
  6 25  1  0  0  0  0 
  7 26  1  0  0  0  0 
  7 27  1  0  0  0  0 
  7 28  1  0  0  0  0 
  8 11  2  0  0  0  0 
  8 13  1  0  0  0  0 
  9 10  2  0  0  0  0 
  9 12  1  0  0  0  0 
 10 15  1  0  0  0  0 
 10 29  1  0  0  0  0 
 11 14  1  0  0  0  0 
 11 30  1  0  0  0  0 
 12 17  2  0  0  0  0 
 12 31  1  0  0  0  0 
 13 16  2  0  0  0  0 
 13 32  1  0  0  0  0 
 14 18  2  0  0  0  0 
 14 33  1  0  0  0  0 
 15 19  2  0  0  0  0 
 15 34  1  0  0  0  0 
 16 18  1  0  0  0  0 
 16 35  1  0  0  0  0 
 17 19  1  0  0  0  0 
 17 36  1  0  0  0  0 
 18 37  1  0  0  0  0 
 19 38  1  0  0  0  0 
M  END
> <cdk:Title>
36109

> <cdk:Remark>
null

> <PUBCHEM_COMPOUND_CID>
36109

> <PUBCHEM_COMPOUND_CANONICALIZED>
1

> <PUBCHEM_CACTVS_COMPLEXITY>
213

> <PUBCHEM_CACTVS_HBOND_ACCEPTOR>
3

> <PUBCHEM_CACTVS_HBOND_DONOR>
0

> <PUBCHEM_CACTVS_ROTATABLE_BOND>
6

> <PUBCHEM_CACTVS_SUBSKEYS>
AAADceB6MAAAAAAAAAAAAAAAAAAAAAAAAAAwYAAAAAAAAAABQAAAHgAAAAAACATxkAcyDoMABACAACBCAAACCAAgIAAIiAAOCIgeJiKEMRqjOCCkwBEcqAeAQAAAAAAAAAAAAAAAAAAAAAAAAAAAAAAAAA==

> <PUBCHEM_IUPAC_OPENEYE_NAME>
N,N-dimethyl-2,2-diphenoxy-ethanamine

> <PUBCHEM_IUPAC_CAS_NAME>
N,N-dimethyl-2,2-diphenoxyethanamine

> <PUBCHEM_IUPAC_NAME>
N,N-dimethyl-2,2-diphenoxyethanamine

> <PUBCHEM_IUPAC_SYSTEMATIC_NAME>
N,N-dimethyl-2,2-diphenoxy-ethanamine

> <PUBCHEM_IUPAC_TRADITIONAL_NAME>
2,2-diphenoxyethyl(dimethyl)amine

> <PUBCHEM_IUPAC_INCHI>
InChI=1S/C16H19NO2/c1-17(2)13-16(18-14-9-5-3-6-10-14)19-15-11-7-4-8-12-15/h3-12,16H,13H2,1-2H3

> <PUBCHEM_IUPAC_INCHIKEY>
QNMGHBMGNRQPNL-UHFFFAOYSA-N

> <PUBCHEM_XLOGP3_AA>
3.8

> <PUBCHEM_EXACT_MASS>
257.141579

> <PUBCHEM_MOLECULAR_FORMULA>
C16H19NO2

> <PUBCHEM_MOLECULAR_WEIGHT>
257.32756

> <PUBCHEM_OPENEYE_CAN_SMILES>
CN(C)CC(OC1=CC=CC=C1)OC2=CC=CC=C2

> <PUBCHEM_OPENEYE_ISO_SMILES>
CN(C)CC(OC1=CC=CC=C1)OC2=CC=CC=C2

> <PUBCHEM_CACTVS_TPSA>
21.7

> <PUBCHEM_MONOISOTOPIC_WEIGHT>
257.141579

> <PUBCHEM_TOTAL_CHARGE>
0

> <PUBCHEM_HEAVY_ATOM_COUNT>
19

> <PUBCHEM_ATOM_DEF_STEREO_COUNT>
0

> <PUBCHEM_ATOM_UDEF_STEREO_COUNT>
0

> <PUBCHEM_BOND_DEF_STEREO_COUNT>
0

> <PUBCHEM_BOND_UDEF_STEREO_COUNT>
0

> <PUBCHEM_ISOTOPIC_ATOM_COUNT>
0

> <PUBCHEM_COMPONENT_COUNT>
1

> <PUBCHEM_CACTVS_TAUTO_COUNT>
1

> <PUBCHEM_COORDINATE_TYPE>
1
5
255

> <PUBCHEM_BONDANNOTATIONS>
10  15  8
11  14  8
12  17  8
13  16  8
14  18  8
15  19  8
16  18  8
17  19  8
8  11  8
8  13  8
9  10  8
9  12  8

> <DRUG_ID>
w238

> <DRUG_NAME>
Medifoxamine

$$$$
66124
  CDK     0927151942
null
 28 27  0  0  0  0  0  0  0  0999 V2000
    5.6720    2.8285    0.0000 Cl  0  0  0  0  0  0  0  0  0  0  0  0
    2.2690    5.1200    0.0000 N   0  0  0  0  0  0  0  0  0  0  0  0
    2.2690    4.1200    0.0000 C   0  0  2  0  0  0  0  0  0  0  0  0
    1.4030    3.6200    0.0000 C   0  0  0  0  0  0  0  0  0  0  0  0
    1.4030    2.6200    0.0000 C   0  0  0  0  0  0  0  0  0  0  0  0
    3.1350    3.6200    0.0000 C   0  0  0  0  0  0  0  0  0  0  0  0
    0.5369    2.1200    0.0000 C   0  0  0  0  0  0  0  0  0  0  0  0
    2.2690    2.1200    0.0000 C   0  0  0  0  0  0  0  0  0  0  0  0
    3.1350    5.6200    0.0000 C   0  0  0  0  0  0  0  0  0  0  0  0
    0.5369    1.1200    0.0000 C   0  0  0  0  0  0  0  0  0  0  0  0
    2.2690    1.1200    0.0000 C   0  0  0  0  0  0  0  0  0  0  0  0
    1.4030    0.6200    0.0000 C   0  0  0  0  0  0  0  0  0  0  0  0
    2.8059    4.4300    0.0000 H   0  0  0  0  0  0  0  0  0  0  0  0
    1.1909    4.2026    0.0000 H   0  0  0  0  0  0  0  0  0  0  0  0
    0.7924    3.5123    0.0000 H   0  0  0  0  0  0  0  0  0  0  0  0
    2.8250    3.0831    0.0000 H   0  0  0  0  0  0  0  0  0  0  0  0
    3.6720    3.3100    0.0000 H   0  0  0  0  0  0  0  0  0  0  0  0
    3.4450    4.1569    0.0000 H   0  0  0  0  0  0  0  0  0  0  0  0
    1.7320    5.4300    0.0000 H   0  0  0  0  0  0  0  0  0  0  0  0
    0.0000    2.4300    0.0000 H   0  0  0  0  0  0  0  0  0  0  0  0
    2.8059    2.4300    0.0000 H   0  0  0  0  0  0  0  0  0  0  0  0
    3.4450    5.0831    0.0000 H   0  0  0  0  0  0  0  0  0  0  0  0
    3.6720    5.9300    0.0000 H   0  0  0  0  0  0  0  0  0  0  0  0
    2.8250    6.1569    0.0000 H   0  0  0  0  0  0  0  0  0  0  0  0
    0.0000    0.8100    0.0000 H   0  0  0  0  0  0  0  0  0  0  0  0
    2.8059    0.8100    0.0000 H   0  0  0  0  0  0  0  0  0  0  0  0
    1.4030    0.0000    0.0000 H   0  0  0  0  0  0  0  0  0  0  0  0
    6.6720    2.8285    0.0000 H   0  0  0  0  0  0  0  0  0  0  0  0
  1 28  1  0  0  0  0 
  3  2  1  1  0  0  0 
  2  9  1  0  0  0  0 
  2 19  1  0  0  0  0 
  3  4  1  0  0  0  0 
  3  6  1  0  0  0  0 
  3 13  1  0  0  0  0 
  4  5  1  0  0  0  0 
  4 14  1  0  0  0  0 
  4 15  1  0  0  0  0 
  5  7  2  0  0  0  0 
  5  8  1  0  0  0  0 
  6 16  1  0  0  0  0 
  6 17  1  0  0  0  0 
  6 18  1  0  0  0  0 
  7 10  1  0  0  0  0 
  7 20  1  0  0  0  0 
  8 11  2  0  0  0  0 
  8 21  1  0  0  0  0 
  9 22  1  0  0  0  0 
  9 23  1  0  0  0  0 
  9 24  1  0  0  0  0 
 10 12  2  0  0  0  0 
 10 25  1  0  0  0  0 
 11 12  1  0  0  0  0 
 11 26  1  0  0  0  0 
 12 27  1  0  0  0  0 
M  END
> <cdk:Title>
66124

> <cdk:Remark>
null

> <PUBCHEM_COMPOUND_CID>
66124

> <PUBCHEM_COMPOUND_CANONICALIZED>
1

> <PUBCHEM_CACTVS_COMPLEXITY>
95

> <PUBCHEM_CACTVS_HBOND_ACCEPTOR>
1

> <PUBCHEM_CACTVS_HBOND_DONOR>
2

> <PUBCHEM_CACTVS_ROTATABLE_BOND>
3

> <PUBCHEM_CACTVS_SUBSKEYS>
AAADceByAAAEAAAAAAAAAAAAAAAAAAAAAAAwAAAAAAAAAAABAAAAHAAQAAAADCjBGAQyAILAAACAAiBCAAACAAAgAAAIiIAIAIgIICKAkRGEIAAgkAAIiAcQgIAOAAAAAAAAAAAAAAAAAAAAAAAAAAAAAA==

> <PUBCHEM_IUPAC_OPENEYE_NAME>
(2S)-N-methyl-1-phenyl-propan-2-amine;hydrochloride

> <PUBCHEM_IUPAC_CAS_NAME>
(2S)-N-methyl-1-phenyl-2-propanamine;hydrochloride

> <PUBCHEM_IUPAC_NAME>
(2S)-N-methyl-1-phenylpropan-2-amine;hydrochloride

> <PUBCHEM_IUPAC_SYSTEMATIC_NAME>
(2S)-N-methyl-1-phenyl-propan-2-amine;hydrochloride

> <PUBCHEM_IUPAC_TRADITIONAL_NAME>
methyl-[(1S)-1-methyl-2-phenyl-ethyl]amine;hydrochloride

> <PUBCHEM_IUPAC_INCHI>
InChI=1S/C10H15N.ClH/c1-9(11-2)8-10-6-4-3-5-7-10;/h3-7,9,11H,8H2,1-2H3;1H/t9-;/m0./s1

> <PUBCHEM_IUPAC_INCHIKEY>
TWXDDNPPQUTEOV-FVGYRXGTSA-N

> <PUBCHEM_EXACT_MASS>
185.097127

> <PUBCHEM_MOLECULAR_FORMULA>
C10H16ClN

> <PUBCHEM_MOLECULAR_WEIGHT>
185.69374

> <PUBCHEM_OPENEYE_CAN_SMILES>
CC(CC1=CC=CC=C1)NC.Cl

> <PUBCHEM_OPENEYE_ISO_SMILES>
C[C@@H](CC1=CC=CC=C1)NC.Cl

> <PUBCHEM_CACTVS_TPSA>
12

> <PUBCHEM_MONOISOTOPIC_WEIGHT>
185.097127

> <PUBCHEM_TOTAL_CHARGE>
0

> <PUBCHEM_HEAVY_ATOM_COUNT>
12

> <PUBCHEM_ATOM_DEF_STEREO_COUNT>
1

> <PUBCHEM_ATOM_UDEF_STEREO_COUNT>
0

> <PUBCHEM_BOND_DEF_STEREO_COUNT>
0

> <PUBCHEM_BOND_UDEF_STEREO_COUNT>
0

> <PUBCHEM_ISOTOPIC_ATOM_COUNT>
0

> <PUBCHEM_COMPONENT_COUNT>
2

> <PUBCHEM_CACTVS_TAUTO_COUNT>
1

> <PUBCHEM_COORDINATE_TYPE>
1
5
255

> <PUBCHEM_BONDANNOTATIONS>
10  12  8
11  12  8
3  2  5
5  7  8
5  8  8
7  10  8
8  11  8

> <DRUG_ID>
w239

> <DRUG_NAME>
Methamphetamine Hydrochloride

$$$$
15250
  CDK     0927151942
null
 30 30  0  0  0  0  0  0  0  0999 V2000
    4.5981    3.3450    0.0000 O   0  0  0  0  0  0  0  0  0  0  0  0
    5.4641    1.8450    0.0000 O   0  0  0  0  0  0  0  0  0  0  0  0
    2.8660   -2.6550    0.0000 C   0  0  0  0  0  0  0  0  0  0  0  0
    3.7320   -2.1550    0.0000 C   0  0  0  0  0  0  0  0  0  0  0  0
    3.7320   -1.1550    0.0000 C   0  0  0  0  0  0  0  0  0  0  0  0
    2.8660   -3.6550    0.0000 C   0  0  0  0  0  0  0  0  0  0  0  0
    2.0000   -2.1550    0.0000 C   0  0  0  0  0  0  0  0  0  0  0  0
    4.5981   -0.6550    0.0000 C   0  0  0  0  0  0  0  0  0  0  0  0
    2.8660   -0.6550    0.0000 C   0  0  0  0  0  0  0  0  0  0  0  0
    3.7320    0.8450    0.0000 C   0  0  0  0  0  0  0  0  0  0  0  0
    4.5981    0.3450    0.0000 C   0  0  0  0  0  0  0  0  0  0  0  0
    2.8660    0.3450    0.0000 C   0  0  0  0  0  0  0  0  0  0  0  0
    3.7320    1.8450    0.0000 C   0  0  0  0  0  0  0  0  0  0  0  0
    4.5981    2.3450    0.0000 C   0  0  0  0  0  0  0  0  0  0  0  0
    2.8660   -2.0350    0.0000 H   0  0  0  0  0  0  0  0  0  0  0  0
    3.9441   -2.7376    0.0000 H   0  0  0  0  0  0  0  0  0  0  0  0
    4.3426   -2.0473    0.0000 H   0  0  0  0  0  0  0  0  0  0  0  0
    2.2460   -3.6550    0.0000 H   0  0  0  0  0  0  0  0  0  0  0  0
    2.8660   -4.2750    0.0000 H   0  0  0  0  0  0  0  0  0  0  0  0
    3.4860   -3.6550    0.0000 H   0  0  0  0  0  0  0  0  0  0  0  0
    2.3100   -1.6181    0.0000 H   0  0  0  0  0  0  0  0  0  0  0  0
    1.4631   -1.8450    0.0000 H   0  0  0  0  0  0  0  0  0  0  0  0
    1.6900   -2.6919    0.0000 H   0  0  0  0  0  0  0  0  0  0  0  0
    5.1350   -0.9650    0.0000 H   0  0  0  0  0  0  0  0  0  0  0  0
    2.3291   -0.9650    0.0000 H   0  0  0  0  0  0  0  0  0  0  0  0
    5.1350    0.6550    0.0000 H   0  0  0  0  0  0  0  0  0  0  0  0
    2.3291    0.6550    0.0000 H   0  0  0  0  0  0  0  0  0  0  0  0
    3.5200    2.4276    0.0000 H   0  0  0  0  0  0  0  0  0  0  0  0
    3.1215    1.7373    0.0000 H   0  0  0  0  0  0  0  0  0  0  0  0
    5.1350    3.6550    0.0000 H   0  0  0  0  0  0  0  0  0  0  0  0
  1 14  1  0  0  0  0 
  1 30  1  0  0  0  0 
  2 14  2  0  0  0  0 
  3  4  1  0  0  0  0 
  3  6  1  0  0  0  0 
  3  7  1  0  0  0  0 
  3 15  1  0  0  0  0 
  4  5  1  0  0  0  0 
  4 16  1  0  0  0  0 
  4 17  1  0  0  0  0 
  5  8  2  0  0  0  0 
  5  9  1  0  0  0  0 
  6 18  1  0  0  0  0 
  6 19  1  0  0  0  0 
  6 20  1  0  0  0  0 
  7 21  1  0  0  0  0 
  7 22  1  0  0  0  0 
  7 23  1  0  0  0  0 
  8 11  1  0  0  0  0 
  8 24  1  0  0  0  0 
  9 12  2  0  0  0  0 
  9 25  1  0  0  0  0 
 10 11  2  0  0  0  0 
 10 12  1  0  0  0  0 
 10 13  1  0  0  0  0 
 11 26  1  0  0  0  0 
 12 27  1  0  0  0  0 
 13 14  1  0  0  0  0 
 13 28  1  0  0  0  0 
 13 29  1  0  0  0  0 
M  END
> <cdk:Title>
15250

> <cdk:Remark>
null

> <PUBCHEM_COMPOUND_CID>
15250

> <PUBCHEM_COMPOUND_CANONICALIZED>
1

> <PUBCHEM_CACTVS_COMPLEXITY>
179

> <PUBCHEM_CACTVS_HBOND_ACCEPTOR>
2

> <PUBCHEM_CACTVS_HBOND_DONOR>
1

> <PUBCHEM_CACTVS_ROTATABLE_BOND>
4

> <PUBCHEM_CACTVS_SUBSKEYS>
AAADceBwMAAAAAAAAAAAAAAAAAAAAAAAAAAwAAAAAAAAAAABAAAAGgAACAAADQCAmAAyCIAAAgCIAiDSCAACAAAgAAAIiAEAAIgIIDKAFRCAYAAkwAEIiAeIyOCOQAAAAAAAAACAAAAAAAAAAAAAAAAAAA==

> <PUBCHEM_IUPAC_OPENEYE_NAME>
2-(4-isobutylphenyl)acetic acid

> <PUBCHEM_IUPAC_CAS_NAME>
2-[4-(2-methylpropyl)phenyl]acetic acid

> <PUBCHEM_IUPAC_NAME>
2-[4-(2-methylpropyl)phenyl]acetic acid

> <PUBCHEM_IUPAC_SYSTEMATIC_NAME>
2-[4-(2-methylpropyl)phenyl]ethanoic acid

> <PUBCHEM_IUPAC_TRADITIONAL_NAME>
2-(4-isobutylphenyl)acetic acid

> <PUBCHEM_IUPAC_INCHI>
InChI=1S/C12H16O2/c1-9(2)7-10-3-5-11(6-4-10)8-12(13)14/h3-6,9H,7-8H2,1-2H3,(H,13,14)

> <PUBCHEM_IUPAC_INCHIKEY>
CYWFCPPBTWOZSF-UHFFFAOYSA-N

> <PUBCHEM_XLOGP3>
3.1

> <PUBCHEM_EXACT_MASS>
192.11503

> <PUBCHEM_MOLECULAR_FORMULA>
C12H16O2

> <PUBCHEM_MOLECULAR_WEIGHT>
192.25424

> <PUBCHEM_OPENEYE_CAN_SMILES>
CC(C)CC1=CC=C(C=C1)CC(=O)O

> <PUBCHEM_OPENEYE_ISO_SMILES>
CC(C)CC1=CC=C(C=C1)CC(=O)O

> <PUBCHEM_CACTVS_TPSA>
37.3

> <PUBCHEM_MONOISOTOPIC_WEIGHT>
192.11503

> <PUBCHEM_TOTAL_CHARGE>
0

> <PUBCHEM_HEAVY_ATOM_COUNT>
14

> <PUBCHEM_ATOM_DEF_STEREO_COUNT>
0

> <PUBCHEM_ATOM_UDEF_STEREO_COUNT>
0

> <PUBCHEM_BOND_DEF_STEREO_COUNT>
0

> <PUBCHEM_BOND_UDEF_STEREO_COUNT>
0

> <PUBCHEM_ISOTOPIC_ATOM_COUNT>
0

> <PUBCHEM_COMPONENT_COUNT>
1

> <PUBCHEM_CACTVS_TAUTO_COUNT>
12

> <PUBCHEM_COORDINATE_TYPE>
1
5
255

> <PUBCHEM_BONDANNOTATIONS>
10  11  8
10  12  8
5  8  8
5  9  8
8  11  8
9  12  8

> <DRUG_ID>
w24

> <DRUG_NAME>
Ibufenac

$$$$
9848990
  CDK     0927151942
null
 75 81  0  0  0  0  0  0  0  0999 V2000
    5.0395   -2.5771    0.0000 O   0  0  0  0  0  0  0  0  0  0  0  0
    7.4805   -2.7776    0.0000 O   0  0  0  0  0  0  0  0  0  0  0  0
    4.5036   -2.1927    0.0000 O   0  0  0  0  0  0  0  0  0  0  0  0
    2.6200   -2.7776    0.0000 O   0  0  0  0  0  0  0  0  0  0  0  0
    6.0154    1.4317    0.0000 N   0  0  3  0  0  0  0  0  0  0  0  0
    6.0154   -0.2399    0.0000 C   0  0  2  0  0  0  0  0  0  0  0  0
    5.5328   -1.0758    0.0000 C   0  0  1  0  0  0  0  0  0  0  0  0
    6.9805   -1.9116    0.0000 C   0  0  2  0  0  0  0  0  0  0  0  0
    6.0154   -1.9116    0.0000 C   0  0  2  0  0  0  0  0  0  0  0  0
    6.3478   -1.4189    0.0000 C   0  0  2  0  0  0  0  0  0  0  0  0
    6.7124   -0.6897    0.0000 C   0  0  0  0  0  0  0  0  0  0  0  0
    5.5328    0.5959    0.0000 C   0  0  1  0  0  0  0  0  0  0  0  0
    6.9805   -0.2399    0.0000 C   0  0  0  0  0  0  0  0  0  0  0  0
    7.4631   -1.0758    0.0000 C   0  0  0  0  0  0  0  0  0  0  0  0
    5.0503   -0.2399    0.0000 C   0  0  0  0  0  0  0  0  0  0  0  0
    4.5677   -1.0758    0.0000 C   0  0  0  0  0  0  0  0  0  0  0  0
    4.5677    0.5959    0.0000 C   0  0  0  0  0  0  0  0  0  0  0  0
    5.4257   -1.8058    0.0000 C   0  0  1  0  0  0  0  0  0  0  0  0
    5.0395    1.6052    0.0000 C   0  0  0  0  0  0  0  0  0  0  0  0
    4.0851   -0.2399    0.0000 C   0  0  0  0  0  0  0  0  0  0  0  0
    4.0851   -1.9116    0.0000 C   0  0  0  0  0  0  0  0  0  0  0  0
    6.9220    1.8537    0.0000 C   0  0  0  0  0  0  0  0  0  0  0  0
    5.6467   -2.7812    0.0000 C   0  0  0  0  0  0  0  0  0  0  0  0
    7.0098    2.8498    0.0000 C   0  0  0  0  0  0  0  0  0  0  0  0
    4.9807   -0.7454    0.0000 C   0  0  0  0  0  0  0  0  0  0  0  0
    3.1200   -0.2399    0.0000 C   0  0  0  0  0  0  0  0  0  0  0  0
    3.1200   -1.9116    0.0000 C   0  0  0  0  0  0  0  0  0  0  0  0
    7.5840    3.6686    0.0000 C   0  0  0  0  0  0  0  0  0  0  0  0
    6.5878    3.7564    0.0000 C   0  0  0  0  0  0  0  0  0  0  0  0
    8.4805   -2.7776    0.0000 C   0  0  0  0  0  0  0  0  0  0  0  0
    2.6374   -1.0758    0.0000 C   0  0  0  0  0  0  0  0  0  0  0  0
    5.8676   -3.7564    0.0000 C   0  0  0  0  0  0  0  0  0  0  0  0
    4.9125   -3.4601    0.0000 C   0  0  0  0  0  0  0  0  0  0  0  0
    6.6017   -3.0774    0.0000 C   0  0  0  0  0  0  0  0  0  0  0  0
    6.4032   -2.6680    0.0000 H   0  0  0  0  0  0  0  0  0  0  0  0
    5.7671   -0.7982    0.0000 H   0  0  0  0  0  0  0  0  0  0  0  0
    7.2565   -0.9870    0.0000 H   0  0  0  0  0  0  0  0  0  0  0  0
    7.0294   -0.1568    0.0000 H   0  0  0  0  0  0  0  0  0  0  0  0
    6.3290    0.2982    0.0000 H   0  0  0  0  0  0  0  0  0  0  0  0
    7.5631   -0.0279    0.0000 H   0  0  0  0  0  0  0  0  0  0  0  0
    6.8728    0.3706    0.0000 H   0  0  0  0  0  0  0  0  0  0  0  0
    7.9380   -1.4743    0.0000 H   0  0  0  0  0  0  0  0  0  0  0  0
    7.9380   -0.6772    0.0000 H   0  0  0  0  0  0  0  0  0  0  0  0
    4.4668   -0.0301    0.0000 H   0  0  0  0  0  0  0  0  0  0  0  0
    5.6487   -0.0777    0.0000 H   0  0  0  0  0  0  0  0  0  0  0  0
    4.6754    1.2065    0.0000 H   0  0  0  0  0  0  0  0  0  0  0  0
    3.9851    0.8079    0.0000 H   0  0  0  0  0  0  0  0  0  0  0  0
    5.1109    2.2210    0.0000 H   0  0  0  0  0  0  0  0  0  0  0  0
    4.4205    1.6391    0.0000 H   0  0  0  0  0  0  0  0  0  0  0  0
    7.0820    1.2547    0.0000 H   0  0  0  0  0  0  0  0  0  0  0  0
    7.5397    1.9073    0.0000 H   0  0  0  0  0  0  0  0  0  0  0  0
    7.5923    2.6374    0.0000 H   0  0  0  0  0  0  0  0  0  0  0  0
    5.5524   -0.5055    0.0000 H   0  0  0  0  0  0  0  0  0  0  0  0
    4.7408   -0.1737    0.0000 H   0  0  0  0  0  0  0  0  0  0  0  0
    4.4090   -0.9853    0.0000 H   0  0  0  0  0  0  0  0  0  0  0  0
    2.8100    0.2970    0.0000 H   0  0  0  0  0  0  0  0  0  0  0  0
    4.4255   -2.8078    0.0000 H   0  0  0  0  0  0  0  0  0  0  0  0
    8.1457    3.4062    0.0000 H   0  0  0  0  0  0  0  0  0  0  0  0
    7.7448    4.2674    0.0000 H   0  0  0  0  0  0  0  0  0  0  0  0
    6.5342    4.3741    0.0000 H   0  0  0  0  0  0  0  0  0  0  0  0
    5.9888    3.5964    0.0000 H   0  0  0  0  0  0  0  0  0  0  0  0
    8.4805   -3.3976    0.0000 H   0  0  0  0  0  0  0  0  0  0  0  0
    9.1005   -2.7776    0.0000 H   0  0  0  0  0  0  0  0  0  0  0  0
    8.4805   -2.1576    0.0000 H   0  0  0  0  0  0  0  0  0  0  0  0
    2.0174   -1.0758    0.0000 H   0  0  0  0  0  0  0  0  0  0  0  0
    5.2630   -3.8934    0.0000 H   0  0  0  0  0  0  0  0  0  0  0  0
    6.0046   -4.3611    0.0000 H   0  0  0  0  0  0  0  0  0  0  0  0
    6.4723   -3.6194    0.0000 H   0  0  0  0  0  0  0  0  0  0  0  0
    4.4916   -3.0049    0.0000 H   0  0  0  0  0  0  0  0  0  0  0  0
    4.4573   -3.8811    0.0000 H   0  0  0  0  0  0  0  0  0  0  0  0
    5.3335   -3.9153    0.0000 H   0  0  0  0  0  0  0  0  0  0  0  0
    6.4180   -3.6696    0.0000 H   0  0  0  0  0  0  0  0  0  0  0  0
    7.1939   -3.2611    0.0000 H   0  0  0  0  0  0  0  0  0  0  0  0
    6.7854   -2.4853    0.0000 H   0  0  0  0  0  0  0  0  0  0  0  0
    2.0000   -2.7776    0.0000 H   0  0  0  0  0  0  0  0  0  0  0  0
  1  9  1  0  0  0  0 
  1 21  1  0  0  0  0 
  8  2  1  6  0  0  0 
  2 30  1  0  0  0  0 
 18  3  1  1  0  0  0 
  3 57  1  0  0  0  0 
  4 27  1  0  0  0  0 
  4 75  1  0  0  0  0 
  5 12  1  0  0  0  0 
  5 19  1  0  0  0  0 
  5 22  1  0  0  0  0 
  6  7  1  0  0  0  0 
  6 11  1  1  0  0  0 
  6 12  1  0  0  0  0 
  6 13  1  0  0  0  0 
  7  9  1  0  0  0  0 
  7 15  1  1  0  0  0 
  7 16  1  0  0  0  0 
  8  9  1  0  0  0  0 
  8 10  1  0  0  0  0 
  8 14  1  0  0  0  0 
  9 35  1  1  0  0  0 
 10 11  1  0  0  0  0 
 10 18  1  0  0  0  0 
 10 36  1  6  0  0  0 
 11 37  1  0  0  0  0 
 11 38  1  0  0  0  0 
 12 17  1  0  0  0  0 
 12 39  1  6  0  0  0 
 13 14  1  0  0  0  0 
 13 40  1  0  0  0  0 
 13 41  1  0  0  0  0 
 14 42  1  0  0  0  0 
 14 43  1  0  0  0  0 
 15 19  1  0  0  0  0 
 15 44  1  0  0  0  0 
 15 45  1  0  0  0  0 
 16 20  2  0  0  0  0 
 16 21  1  0  0  0  0 
 17 20  1  0  0  0  0 
 17 46  1  0  0  0  0 
 17 47  1  0  0  0  0 
 18 23  1  0  0  0  0 
 18 25  1  0  0  0  0 
 19 48  1  0  0  0  0 
 19 49  1  0  0  0  0 
 20 26  1  0  0  0  0 
 21 27  2  0  0  0  0 
 22 24  1  0  0  0  0 
 22 50  1  0  0  0  0 
 22 51  1  0  0  0  0 
 23 32  1  0  0  0  0 
 23 33  1  0  0  0  0 
 23 34  1  0  0  0  0 
 24 28  1  0  0  0  0 
 24 29  1  0  0  0  0 
 24 52  1  0  0  0  0 
 25 53  1  0  0  0  0 
 25 54  1  0  0  0  0 
 25 55  1  0  0  0  0 
 26 31  2  0  0  0  0 
 26 56  1  0  0  0  0 
 27 31  1  0  0  0  0 
 28 29  1  0  0  0  0 
 28 58  1  0  0  0  0 
 28 59  1  0  0  0  0 
 29 60  1  0  0  0  0 
 29 61  1  0  0  0  0 
 30 62  1  0  0  0  0 
 30 63  1  0  0  0  0 
 30 64  1  0  0  0  0 
 31 65  1  0  0  0  0 
 32 66  1  0  0  0  0 
 32 67  1  0  0  0  0 
 32 68  1  0  0  0  0 
 33 69  1  0  0  0  0 
 33 70  1  0  0  0  0 
 33 71  1  0  0  0  0 
 34 72  1  0  0  0  0 
 34 73  1  0  0  0  0 
 34 74  1  0  0  0  0 
M  END
> <cdk:Title>
9848990

> <cdk:Remark>
null

> <PUBCHEM_COMPOUND_CID>
9848990

> <PUBCHEM_COMPOUND_CANONICALIZED>
1

> <PUBCHEM_CACTVS_COMPLEXITY>
869

> <PUBCHEM_CACTVS_HBOND_ACCEPTOR>
5

> <PUBCHEM_CACTVS_HBOND_DONOR>
2

> <PUBCHEM_CACTVS_ROTATABLE_BOND>
5

> <PUBCHEM_CACTVS_SUBSKEYS>
AAADcfB6OAAAAAAAAAAAAAAAGAAAASAAAAA8YMGDAAAWAEjxAAAAHgAACAAAD3zhmAYyBoMABgCAAiBCAAACCAAgIAAIiAAOiIgNJiKGsRuGeCOlwBGLuAfw8P8PoAABAAAYQADQAAaAADSAAAAAAAAAAA==

> <PUBCHEM_IUPAC_INCHI>
InChI=1S/C29H41NO4/c1-25(2,3)26(4,32)20-15-27-10-11-29(20,33-5)24-28(27)12-13-30(16-17-6-7-17)21(27)14-18-8-9-19(31)23(34-24)22(18)28/h8-9,17,20-21,24,31-32H,6-7,10-16H2,1-5H3/t20-,21-,24-,26+,27-,28+,29+/m1/s1

> <PUBCHEM_IUPAC_INCHIKEY>
RMRJXGBAOAMLHD-CTAPUXPBSA-N

> <PUBCHEM_XLOGP3>
5

> <PUBCHEM_EXACT_MASS>
467.303559

> <PUBCHEM_MOLECULAR_FORMULA>
C29H41NO4

> <PUBCHEM_MOLECULAR_WEIGHT>
467.64014

> <PUBCHEM_OPENEYE_CAN_SMILES>
CC(C)(C)C(C)(C1CC23CCC1(C4C25CCN(C3CC6=C5C(=C(C=C6)O)O4)CC7CC7)OC)O

> <PUBCHEM_OPENEYE_ISO_SMILES>
C[C@]([C@H]1C[C@@]23CC[C@]1([C@H]4[C@@]25CCN([C@@H]3CC6=C5C(=C(C=C6)O)O4)CC7CC7)OC)(C(C)(C)C)O

> <PUBCHEM_CACTVS_TPSA>
62.2

> <PUBCHEM_MONOISOTOPIC_WEIGHT>
467.303559

> <PUBCHEM_TOTAL_CHARGE>
0

> <PUBCHEM_HEAVY_ATOM_COUNT>
34

> <PUBCHEM_ATOM_DEF_STEREO_COUNT>
7

> <PUBCHEM_ATOM_UDEF_STEREO_COUNT>
0

> <PUBCHEM_BOND_DEF_STEREO_COUNT>
0

> <PUBCHEM_BOND_UDEF_STEREO_COUNT>
0

> <PUBCHEM_ISOTOPIC_ATOM_COUNT>
0

> <PUBCHEM_COMPONENT_COUNT>
1

> <PUBCHEM_CACTVS_TAUTO_COUNT>
2

> <PUBCHEM_COORDINATE_TYPE>
1
5
255

> <PUBCHEM_BONDANNOTATIONS>
10  36  6
12  39  6
16  20  8
16  21  8
8  2  6
20  26  8
21  27  8
26  31  8
27  31  8
18  3  5
6  11  5
7  15  5
9  35  5

> <DRUG_ID>
w240

> <DRUG_NAME>
Buprenorphine

$$$$
65592
  CDK     0927151942
null
 21 22  0  0  0  0  0  0  0  0999 V2000
    2.0000   -0.8450    0.0000 Br  0  0  0  0  0  0  0  0  0  0  0  0
    3.7320   -1.8450    0.0000 O   0  0  0  0  0  0  0  0  0  0  0  0
    5.4920   -0.8797    0.0000 N   0  0  0  0  0  0  0  0  0  0  0  0
    4.5981    0.6550    0.0000 C   0  0  0  0  0  0  0  0  0  0  0  0
    3.7320    1.1550    0.0000 C   0  0  0  0  0  0  0  0  0  0  0  0
    4.5981   -0.3450    0.0000 C   0  0  0  0  0  0  0  0  0  0  0  0
    3.7320   -0.8450    0.0000 C   0  0  0  0  0  0  0  0  0  0  0  0
    2.8660    0.6550    0.0000 C   0  0  0  0  0  0  0  0  0  0  0  0
    5.4920    1.1897    0.0000 C   0  0  0  0  0  0  0  0  0  0  0  0
    2.8660   -0.3450    0.0000 C   0  0  0  0  0  0  0  0  0  0  0  0
    3.7320    2.1550    0.0000 C   0  0  0  0  0  0  0  0  0  0  0  0
    6.3981    0.6758    0.0000 C   0  0  0  0  0  0  0  0  0  0  0  0
    6.3981   -0.3658    0.0000 C   0  0  0  0  0  0  0  0  0  0  0  0
    2.3291    0.9650    0.0000 H   0  0  0  0  0  0  0  0  0  0  0  0
    5.4848    1.8096    0.0000 H   0  0  0  0  0  0  0  0  0  0  0  0
    4.3520    2.1550    0.0000 H   0  0  0  0  0  0  0  0  0  0  0  0
    3.7320    2.7750    0.0000 H   0  0  0  0  0  0  0  0  0  0  0  0
    3.1120    2.1550    0.0000 H   0  0  0  0  0  0  0  0  0  0  0  0
    6.9338    0.9879    0.0000 H   0  0  0  0  0  0  0  0  0  0  0  0
    6.9338   -0.6779    0.0000 H   0  0  0  0  0  0  0  0  0  0  0  0
    3.1951   -2.1550    0.0000 H   0  0  0  0  0  0  0  0  0  0  0  0
  1 10  1  0  0  0  0 
  2  7  1  0  0  0  0 
  2 21  1  0  0  0  0 
  3  6  1  0  0  0  0 
  3 13  2  0  0  0  0 
  4  5  1  0  0  0  0 
  4  6  2  0  0  0  0 
  4  9  1  0  0  0  0 
  5  8  2  0  0  0  0 
  5 11  1  0  0  0  0 
  6  7  1  0  0  0  0 
  7 10  2  0  0  0  0 
  8 10  1  0  0  0  0 
  8 14  1  0  0  0  0 
  9 12  2  0  0  0  0 
  9 15  1  0  0  0  0 
 11 16  1  0  0  0  0 
 11 17  1  0  0  0  0 
 11 18  1  0  0  0  0 
 12 13  1  0  0  0  0 
 12 19  1  0  0  0  0 
 13 20  1  0  0  0  0 
M  END
> <cdk:Title>
65592

> <cdk:Remark>
null

> <PUBCHEM_COMPOUND_CID>
65592

> <PUBCHEM_COMPOUND_CANONICALIZED>
1

> <PUBCHEM_CACTVS_COMPLEXITY>
188

> <PUBCHEM_CACTVS_HBOND_ACCEPTOR>
2

> <PUBCHEM_CACTVS_HBOND_DONOR>
1

> <PUBCHEM_CACTVS_ROTATABLE_BOND>
0

> <PUBCHEM_CACTVS_SUBSKEYS>
AAADccByIAAAEAAAAAAAAAAAAAAAAAAAAAA8QAAAAAAAAACx8AAAHgBACAABrAzBngQ+xvIIEgCgAzRnRASCgCAxYiQI2CA9bLgKJuLSkZOEcAhkwBHY2heQwLAOogABUAESFABEAAKgAiQoAAAAAAAAAA==

> <PUBCHEM_IUPAC_OPENEYE_NAME>
7-bromo-5-methyl-quinolin-8-ol

> <PUBCHEM_IUPAC_CAS_NAME>
7-bromo-5-methyl-8-quinolinol

> <PUBCHEM_IUPAC_NAME>
7-bromo-5-methylquinolin-8-ol

> <PUBCHEM_IUPAC_SYSTEMATIC_NAME>
7-bromanyl-5-methyl-quinolin-8-ol

> <PUBCHEM_IUPAC_TRADITIONAL_NAME>
7-bromo-5-methyl-quinolin-8-ol

> <PUBCHEM_IUPAC_INCHI>
InChI=1S/C10H8BrNO/c1-6-5-8(11)10(13)9-7(6)3-2-4-12-9/h2-5,13H,1H3

> <PUBCHEM_IUPAC_INCHIKEY>
JMOVFFLYGIQXMM-UHFFFAOYSA-N

> <PUBCHEM_XLOGP3>
3.1

> <PUBCHEM_EXACT_MASS>
236.978926

> <PUBCHEM_MOLECULAR_FORMULA>
C10H8BrNO

> <PUBCHEM_MOLECULAR_WEIGHT>
238.08062

> <PUBCHEM_OPENEYE_CAN_SMILES>
CC1=CC(=C(C2=C1C=CC=N2)O)Br

> <PUBCHEM_OPENEYE_ISO_SMILES>
CC1=CC(=C(C2=C1C=CC=N2)O)Br

> <PUBCHEM_CACTVS_TPSA>
33.1

> <PUBCHEM_MONOISOTOPIC_WEIGHT>
236.978926

> <PUBCHEM_TOTAL_CHARGE>
0

> <PUBCHEM_HEAVY_ATOM_COUNT>
13

> <PUBCHEM_ATOM_DEF_STEREO_COUNT>
0

> <PUBCHEM_ATOM_UDEF_STEREO_COUNT>
0

> <PUBCHEM_BOND_DEF_STEREO_COUNT>
0

> <PUBCHEM_BOND_UDEF_STEREO_COUNT>
0

> <PUBCHEM_ISOTOPIC_ATOM_COUNT>
0

> <PUBCHEM_COMPONENT_COUNT>
1

> <PUBCHEM_CACTVS_TAUTO_COUNT>
2

> <PUBCHEM_COORDINATE_TYPE>
1
5
255

> <PUBCHEM_BONDANNOTATIONS>
12  13  8
3  13  8
3  6  8
4  5  8
4  6  8
4  9  8
5  8  8
6  7  8
7  10  8
8  10  8
9  12  8

> <DRUG_ID>
w241

> <DRUG_NAME>
Tilbroquinol

$$$$
4086
  CDK     0927151942
null
 32 32  0  0  0  0  0  0  0  0999 V2000
    2.8660    0.8100    0.0000 O   0  0  0  0  0  0  0  0  0  0  0  0
    5.4641   -2.6900    0.0000 O   0  0  0  0  0  0  0  0  0  0  0  0
    2.0000   -2.6900    0.0000 O   0  0  0  0  0  0  0  0  0  0  0  0
    4.5981    1.8100    0.0000 N   0  0  0  0  0  0  0  0  0  0  0  0
    3.7320    0.3100    0.0000 C   0  0  3  0  0  0  0  0  0  0  0  0
    4.5981    0.8100    0.0000 C   0  0  0  0  0  0  0  0  0  0  0  0
    5.4641    2.3100    0.0000 C   0  0  0  0  0  0  0  0  0  0  0  0
    3.7320   -0.6900    0.0000 C   0  0  0  0  0  0  0  0  0  0  0  0
    5.4641    3.3100    0.0000 C   0  0  0  0  0  0  0  0  0  0  0  0
    6.3301    1.8100    0.0000 C   0  0  0  0  0  0  0  0  0  0  0  0
    2.8660   -1.1900    0.0000 C   0  0  0  0  0  0  0  0  0  0  0  0
    4.5981   -1.1900    0.0000 C   0  0  0  0  0  0  0  0  0  0  0  0
    4.5981   -2.1900    0.0000 C   0  0  0  0  0  0  0  0  0  0  0  0
    2.8660   -2.1900    0.0000 C   0  0  0  0  0  0  0  0  0  0  0  0
    3.7320   -2.6900    0.0000 C   0  0  0  0  0  0  0  0  0  0  0  0
    3.7320    0.9300    0.0000 H   0  0  0  0  0  0  0  0  0  0  0  0
    4.8101    0.2274    0.0000 H   0  0  0  0  0  0  0  0  0  0  0  0
    5.2087    0.9177    0.0000 H   0  0  0  0  0  0  0  0  0  0  0  0
    5.4641    1.6900    0.0000 H   0  0  0  0  0  0  0  0  0  0  0  0
    4.0611    2.1200    0.0000 H   0  0  0  0  0  0  0  0  0  0  0  0
    6.0841    3.3100    0.0000 H   0  0  0  0  0  0  0  0  0  0  0  0
    5.4641    3.9300    0.0000 H   0  0  0  0  0  0  0  0  0  0  0  0
    6.0201    1.2731    0.0000 H   0  0  0  0  0  0  0  0  0  0  0  0
    6.8671    1.5000    0.0000 H   0  0  0  0  0  0  0  0  0  0  0  0
    6.6401    2.3469    0.0000 H   0  0  0  0  0  0  0  0  0  0  0  0
    4.8441    3.3100    0.0000 H   0  0  0  0  0  0  0  0  0  0  0  0
    2.3291   -0.8800    0.0000 H   0  0  0  0  0  0  0  0  0  0  0  0
    5.1350   -0.8800    0.0000 H   0  0  0  0  0  0  0  0  0  0  0  0
    2.8660    1.4300    0.0000 H   0  0  0  0  0  0  0  0  0  0  0  0
    3.7320   -3.3100    0.0000 H   0  0  0  0  0  0  0  0  0  0  0  0
    5.4641   -3.3100    0.0000 H   0  0  0  0  0  0  0  0  0  0  0  0
    2.0000   -3.3100    0.0000 H   0  0  0  0  0  0  0  0  0  0  0  0
  1  5  1  0  0  0  0 
  1 29  1  0  0  0  0 
  2 13  1  0  0  0  0 
  2 31  1  0  0  0  0 
  3 14  1  0  0  0  0 
  3 32  1  0  0  0  0 
  4  6  1  0  0  0  0 
  4  7  1  0  0  0  0 
  4 20  1  0  0  0  0 
  5  6  1  0  0  0  0 
  5  8  1  0  0  0  0 
  5 16  1  0  0  0  0 
  6 17  1  0  0  0  0 
  6 18  1  0  0  0  0 
  7  9  1  0  0  0  0 
  7 10  1  0  0  0  0 
  7 19  1  0  0  0  0 
  8 11  2  0  0  0  0 
  8 12  1  0  0  0  0 
  9 21  1  0  0  0  0 
  9 22  1  0  0  0  0 
  9 26  1  0  0  0  0 
 10 23  1  0  0  0  0 
 10 24  1  0  0  0  0 
 10 25  1  0  0  0  0 
 11 14  1  0  0  0  0 
 11 27  1  0  0  0  0 
 12 13  2  0  0  0  0 
 12 28  1  0  0  0  0 
 13 15  1  0  0  0  0 
 14 15  2  0  0  0  0 
 15 30  1  0  0  0  0 
M  END
> <cdk:Title>
4086

> <cdk:Remark>
null

> <PUBCHEM_COMPOUND_CID>
4086

> <PUBCHEM_COMPOUND_CANONICALIZED>
1

> <PUBCHEM_CACTVS_COMPLEXITY>
177

> <PUBCHEM_CACTVS_HBOND_ACCEPTOR>
4

> <PUBCHEM_CACTVS_HBOND_DONOR>
4

> <PUBCHEM_CACTVS_ROTATABLE_BOND>
4

> <PUBCHEM_CACTVS_SUBSKEYS>
AAADceByMAAAAAAAAAAAAAAAAAAAAAAAAAAwAAAAAAAAAAABAAAAHgAQCAAADDzhmAYyBoLAAgCAAiBCAAACAAAgIAAAiIAOCIgKNyKCkROEcAAl0BWYmAfQ8LYOAAABCAAAAAAAAAIQAAAAAAAAAAAAAA==

> <PUBCHEM_IUPAC_OPENEYE_NAME>
5-[1-hydroxy-2-(isopropylamino)ethyl]benzene-1,3-diol

> <PUBCHEM_IUPAC_CAS_NAME>
5-[1-hydroxy-2-(propan-2-ylamino)ethyl]benzene-1,3-diol

> <PUBCHEM_IUPAC_NAME>
5-[1-hydroxy-2-(propan-2-ylamino)ethyl]benzene-1,3-diol

> <PUBCHEM_IUPAC_SYSTEMATIC_NAME>
5-[1-oxidanyl-2-(propan-2-ylamino)ethyl]benzene-1,3-diol

> <PUBCHEM_IUPAC_TRADITIONAL_NAME>
5-[1-hydroxy-2-(isopropylamino)ethyl]resorcinol

> <PUBCHEM_IUPAC_INCHI>
InChI=1S/C11H17NO3/c1-7(2)12-6-11(15)8-3-9(13)5-10(14)4-8/h3-5,7,11-15H,6H2,1-2H3

> <PUBCHEM_IUPAC_INCHIKEY>
LMOINURANNBYCM-UHFFFAOYSA-N

> <PUBCHEM_XLOGP3>
0.7

> <PUBCHEM_EXACT_MASS>
211.120843

> <PUBCHEM_MOLECULAR_FORMULA>
C11H17NO3

> <PUBCHEM_MOLECULAR_WEIGHT>
211.25758

> <PUBCHEM_OPENEYE_CAN_SMILES>
CC(C)NCC(C1=CC(=CC(=C1)O)O)O

> <PUBCHEM_OPENEYE_ISO_SMILES>
CC(C)NCC(C1=CC(=CC(=C1)O)O)O

> <PUBCHEM_CACTVS_TPSA>
72.7

> <PUBCHEM_MONOISOTOPIC_WEIGHT>
211.120843

> <PUBCHEM_TOTAL_CHARGE>
0

> <PUBCHEM_HEAVY_ATOM_COUNT>
15

> <PUBCHEM_ATOM_DEF_STEREO_COUNT>
0

> <PUBCHEM_ATOM_UDEF_STEREO_COUNT>
1

> <PUBCHEM_BOND_DEF_STEREO_COUNT>
0

> <PUBCHEM_BOND_UDEF_STEREO_COUNT>
0

> <PUBCHEM_ISOTOPIC_ATOM_COUNT>
0

> <PUBCHEM_COMPONENT_COUNT>
1

> <PUBCHEM_CACTVS_TAUTO_COUNT>
5

> <PUBCHEM_COORDINATE_TYPE>
1
5
255

> <PUBCHEM_BONDANNOTATIONS>
5  1  3
11  14  8
12  13  8
13  15  8
14  15  8
8  11  8
8  12  8

> <DRUG_ID>
w242

> <DRUG_NAME>
Orciprenaline

$$$$
13738
  CDK     0927151942
null
 37 38  0  0  0  0  0  0  0  0999 V2000
    2.3660    0.1424    0.0000 O   0  0  0  0  0  0  0  0  0  0  0  0
    4.1349    2.6739    0.0000 N   0  0  0  0  0  0  0  0  0  0  0  0
    3.6750   -0.8087    0.0000 N   0  0  0  0  0  0  0  0  0  0  0  0
    2.0570   -0.8087    0.0000 N   0  0  0  0  0  0  0  0  0  0  0  0
    3.5471    1.8649    0.0000 C   0  0  0  0  0  0  0  0  0  0  0  0
    3.9538    0.9514    0.0000 C   0  0  0  0  0  0  0  0  0  0  0  0
    3.7281    3.5875    0.0000 C   0  0  0  0  0  0  0  0  0  0  0  0
    5.1294    2.5694    0.0000 C   0  0  0  0  0  0  0  0  0  0  0  0
    3.3660    0.1424    0.0000 C   0  0  0  0  0  0  0  0  0  0  0  0
    4.3159    4.3965    0.0000 C   0  0  0  0  0  0  0  0  0  0  0  0
    5.7172    3.3784    0.0000 C   0  0  0  0  0  0  0  0  0  0  0  0
    2.8660   -1.3965    0.0000 C   0  0  0  0  0  0  0  0  0  0  0  0
    2.8660   -2.3965    0.0000 C   0  0  0  0  0  0  0  0  0  0  0  0
    3.7320   -2.8965    0.0000 C   0  0  0  0  0  0  0  0  0  0  0  0
    2.0000   -2.8965    0.0000 C   0  0  0  0  0  0  0  0  0  0  0  0
    3.7320   -3.8965    0.0000 C   0  0  0  0  0  0  0  0  0  0  0  0
    2.0000   -3.8965    0.0000 C   0  0  0  0  0  0  0  0  0  0  0  0
    2.8660   -4.3965    0.0000 C   0  0  0  0  0  0  0  0  0  0  0  0
    3.1164    2.3109    0.0000 H   0  0  0  0  0  0  0  0  0  0  0  0
    3.0331    1.5182    0.0000 H   0  0  0  0  0  0  0  0  0  0  0  0
    4.3845    0.5054    0.0000 H   0  0  0  0  0  0  0  0  0  0  0  0
    4.4678    1.2981    0.0000 H   0  0  0  0  0  0  0  0  0  0  0  0
    3.2974    4.0335    0.0000 H   0  0  0  0  0  0  0  0  0  0  0  0
    3.2141    3.2408    0.0000 H   0  0  0  0  0  0  0  0  0  0  0  0
    4.9585    1.9734    0.0000 H   0  0  0  0  0  0  0  0  0  0  0  0
    5.6866    2.2976    0.0000 H   0  0  0  0  0  0  0  0  0  0  0  0
    4.8175    4.0321    0.0000 H   0  0  0  0  0  0  0  0  0  0  0  0
    4.6803    4.8981    0.0000 H   0  0  0  0  0  0  0  0  0  0  0  0
    3.8143    4.7609    0.0000 H   0  0  0  0  0  0  0  0  0  0  0  0
    6.2188    3.0140    0.0000 H   0  0  0  0  0  0  0  0  0  0  0  0
    6.0816    3.8800    0.0000 H   0  0  0  0  0  0  0  0  0  0  0  0
    5.2156    3.7428    0.0000 H   0  0  0  0  0  0  0  0  0  0  0  0
    4.2690   -2.5865    0.0000 H   0  0  0  0  0  0  0  0  0  0  0  0
    1.4631   -2.5865    0.0000 H   0  0  0  0  0  0  0  0  0  0  0  0
    4.2690   -4.2065    0.0000 H   0  0  0  0  0  0  0  0  0  0  0  0
    1.4631   -4.2065    0.0000 H   0  0  0  0  0  0  0  0  0  0  0  0
    2.8660   -5.0165    0.0000 H   0  0  0  0  0  0  0  0  0  0  0  0
  1  4  1  0  0  0  0 
  1  9  1  0  0  0  0 
  2  5  1  0  0  0  0 
  2  7  1  0  0  0  0 
  2  8  1  0  0  0  0 
  3  9  2  0  0  0  0 
  3 12  1  0  0  0  0 
  4 12  2  0  0  0  0 
  5  6  1  0  0  0  0 
  5 19  1  0  0  0  0 
  5 20  1  0  0  0  0 
  6  9  1  0  0  0  0 
  6 21  1  0  0  0  0 
  6 22  1  0  0  0  0 
  7 10  1  0  0  0  0 
  7 23  1  0  0  0  0 
  7 24  1  0  0  0  0 
  8 11  1  0  0  0  0 
  8 25  1  0  0  0  0 
  8 26  1  0  0  0  0 
 10 27  1  0  0  0  0 
 10 28  1  0  0  0  0 
 10 29  1  0  0  0  0 
 11 30  1  0  0  0  0 
 11 31  1  0  0  0  0 
 11 32  1  0  0  0  0 
 12 13  1  0  0  0  0 
 13 14  2  0  0  0  0 
 13 15  1  0  0  0  0 
 14 16  1  0  0  0  0 
 14 33  1  0  0  0  0 
 15 17  2  0  0  0  0 
 15 34  1  0  0  0  0 
 16 18  2  0  0  0  0 
 16 35  1  0  0  0  0 
 17 18  1  0  0  0  0 
 17 36  1  0  0  0  0 
 18 37  1  0  0  0  0 
M  END
> <cdk:Title>
13738

> <cdk:Remark>
null

> <PUBCHEM_COMPOUND_CID>
13738

> <PUBCHEM_COMPOUND_CANONICALIZED>
1

> <PUBCHEM_CACTVS_COMPLEXITY>
227

> <PUBCHEM_CACTVS_HBOND_ACCEPTOR>
4

> <PUBCHEM_CACTVS_HBOND_DONOR>
0

> <PUBCHEM_CACTVS_ROTATABLE_BOND>
6

> <PUBCHEM_CACTVS_SUBSKEYS>
AAADceBzIAAAAAAAAAAAAAAAAAAAAWAAAAAwAAAAAAAAAAABwAAAHgAEAAAADADBmwQzEIcYEACpAiNyNgCCgAkgAKApiCE4BJiIKKqA2RGEIAhihQKIiAcQgAAOAAAAAAAAAAAAAAAAAAAAAAAAAAAAAA==

> <PUBCHEM_IUPAC_OPENEYE_NAME>
N,N-diethyl-2-(3-phenyl-1,2,4-oxadiazol-5-yl)ethanamine

> <PUBCHEM_IUPAC_CAS_NAME>
N,N-diethyl-2-(3-phenyl-1,2,4-oxadiazol-5-yl)ethanamine

> <PUBCHEM_IUPAC_NAME>
N,N-diethyl-2-(3-phenyl-1,2,4-oxadiazol-5-yl)ethanamine

> <PUBCHEM_IUPAC_SYSTEMATIC_NAME>
N,N-diethyl-2-(3-phenyl-1,2,4-oxadiazol-5-yl)ethanamine

> <PUBCHEM_IUPAC_TRADITIONAL_NAME>
diethyl-[2-(3-phenyl-1,2,4-oxadiazol-5-yl)ethyl]amine

> <PUBCHEM_IUPAC_INCHI>
InChI=1S/C14H19N3O/c1-3-17(4-2)11-10-13-15-14(16-18-13)12-8-6-5-7-9-12/h5-9H,3-4,10-11H2,1-2H3

> <PUBCHEM_IUPAC_INCHIKEY>
IDCHQQSVJAAUQQ-UHFFFAOYSA-N

> <PUBCHEM_XLOGP3_AA>
2.9

> <PUBCHEM_EXACT_MASS>
245.152812

> <PUBCHEM_MOLECULAR_FORMULA>
C14H19N3O

> <PUBCHEM_MOLECULAR_WEIGHT>
245.32016

> <PUBCHEM_OPENEYE_CAN_SMILES>
CCN(CC)CCC1=NC(=NO1)C2=CC=CC=C2

> <PUBCHEM_OPENEYE_ISO_SMILES>
CCN(CC)CCC1=NC(=NO1)C2=CC=CC=C2

> <PUBCHEM_CACTVS_TPSA>
42.2

> <PUBCHEM_MONOISOTOPIC_WEIGHT>
245.152812

> <PUBCHEM_TOTAL_CHARGE>
0

> <PUBCHEM_HEAVY_ATOM_COUNT>
18

> <PUBCHEM_ATOM_DEF_STEREO_COUNT>
0

> <PUBCHEM_ATOM_UDEF_STEREO_COUNT>
0

> <PUBCHEM_BOND_DEF_STEREO_COUNT>
0

> <PUBCHEM_BOND_UDEF_STEREO_COUNT>
0

> <PUBCHEM_ISOTOPIC_ATOM_COUNT>
0

> <PUBCHEM_COMPONENT_COUNT>
1

> <PUBCHEM_CACTVS_TAUTO_COUNT>
3

> <PUBCHEM_COORDINATE_TYPE>
1
5
255

> <PUBCHEM_BONDANNOTATIONS>
1  4  8
1  9  8
13  14  8
13  15  8
14  16  8
15  17  8
16  18  8
17  18  8
3  12  8
3  9  8
4  12  8

> <DRUG_ID>
w243

> <DRUG_NAME>
Oxolamine Citrate

$$$$
36910
  CDK     0927151942
null
 60 62  0  0  0  0  0  0  0  0999 V2000
    3.7320   -2.0000    0.0000 O   0  0  0  0  0  0  0  0  0  0  0  0
    7.1962    2.0000    0.0000 O   0  0  0  0  0  0  0  0  0  0  0  0
    5.4641   -4.0000    0.0000 O   0  0  0  0  0  0  0  0  0  0  0  0
    5.4641   -1.0000    0.0000 N   0  0  0  0  0  0  0  0  0  0  0  0
    5.4641    1.0000    0.0000 N   0  0  0  0  0  0  0  0  0  0  0  0
    4.5981   -0.5000    0.0000 C   0  0  0  0  0  0  0  0  0  0  0  0
    6.3301   -0.5000    0.0000 C   0  0  0  0  0  0  0  0  0  0  0  0
    6.3301    0.5000    0.0000 C   0  0  0  0  0  0  0  0  0  0  0  0
    4.5981    0.5000    0.0000 C   0  0  0  0  0  0  0  0  0  0  0  0
    5.4641   -2.0000    0.0000 C   0  0  0  0  0  0  0  0  0  0  0  0
    5.4641    2.0000    0.0000 C   0  0  0  0  0  0  0  0  0  0  0  0
    4.5981   -2.5000    0.0000 C   0  0  3  0  0  0  0  0  0  0  0  0
    6.3301    2.5000    0.0000 C   0  0  3  0  0  0  0  0  0  0  0  0
    4.5981   -3.5000    0.0000 C   0  0  3  0  0  0  0  0  0  0  0  0
    6.3301    3.5000    0.0000 C   0  0  0  0  0  0  0  0  0  0  0  0
    3.7320   -4.0000    0.0000 C   0  0  0  0  0  0  0  0  0  0  0  0
    7.1962    4.0000    0.0000 C   0  0  0  0  0  0  0  0  0  0  0  0
    5.4641    4.0000    0.0000 C   0  0  0  0  0  0  0  0  0  0  0  0
    2.8660   -3.5000    0.0000 C   0  0  0  0  0  0  0  0  0  0  0  0
    3.7320   -5.0000    0.0000 C   0  0  0  0  0  0  0  0  0  0  0  0
    8.0622    2.5000    0.0000 C   0  0  0  0  0  0  0  0  0  0  0  0
    5.4641   -5.0000    0.0000 C   0  0  0  0  0  0  0  0  0  0  0  0
    7.1962    5.0000    0.0000 C   0  0  0  0  0  0  0  0  0  0  0  0
    5.4641    5.0000    0.0000 C   0  0  0  0  0  0  0  0  0  0  0  0
    2.0000   -4.0000    0.0000 C   0  0  0  0  0  0  0  0  0  0  0  0
    2.8660   -5.5000    0.0000 C   0  0  0  0  0  0  0  0  0  0  0  0
    6.3301    5.5000    0.0000 C   0  0  0  0  0  0  0  0  0  0  0  0
    2.0000   -5.0000    0.0000 C   0  0  0  0  0  0  0  0  0  0  0  0
    6.5422   -1.0826    0.0000 H   0  0  0  0  0  0  0  0  0  0  0  0
    6.9407   -0.3923    0.0000 H   0  0  0  0  0  0  0  0  0  0  0  0
    3.9875   -0.3923    0.0000 H   0  0  0  0  0  0  0  0  0  0  0  0
    4.3860   -1.0826    0.0000 H   0  0  0  0  0  0  0  0  0  0  0  0
    4.3860    1.0826    0.0000 H   0  0  0  0  0  0  0  0  0  0  0  0
    3.9875    0.3923    0.0000 H   0  0  0  0  0  0  0  0  0  0  0  0
    6.9407    0.3923    0.0000 H   0  0  0  0  0  0  0  0  0  0  0  0
    6.5422    1.0826    0.0000 H   0  0  0  0  0  0  0  0  0  0  0  0
    5.6762   -2.5826    0.0000 H   0  0  0  0  0  0  0  0  0  0  0  0
    6.0747   -1.8923    0.0000 H   0  0  0  0  0  0  0  0  0  0  0  0
    5.2520    2.5826    0.0000 H   0  0  0  0  0  0  0  0  0  0  0  0
    4.8535    1.8923    0.0000 H   0  0  0  0  0  0  0  0  0  0  0  0
    4.5981   -1.6500    0.0000 H   0  0  0  0  0  0  0  0  0  0  0  0
    7.0662    2.9250    0.0000 H   0  0  0  0  0  0  0  0  0  0  0  0
    4.5981   -4.3500    0.0000 H   0  0  0  0  0  0  0  0  0  0  0  0
    3.7320   -1.3800    0.0000 H   0  0  0  0  0  0  0  0  0  0  0  0
    7.7331    3.6900    0.0000 H   0  0  0  0  0  0  0  0  0  0  0  0
    4.9272    3.6900    0.0000 H   0  0  0  0  0  0  0  0  0  0  0  0
    2.8660   -2.8800    0.0000 H   0  0  0  0  0  0  0  0  0  0  0  0
    4.2690   -5.3100    0.0000 H   0  0  0  0  0  0  0  0  0  0  0  0
    8.3722    1.9631    0.0000 H   0  0  0  0  0  0  0  0  0  0  0  0
    8.5991    2.8100    0.0000 H   0  0  0  0  0  0  0  0  0  0  0  0
    7.7522    3.0369    0.0000 H   0  0  0  0  0  0  0  0  0  0  0  0
    4.8441   -5.0000    0.0000 H   0  0  0  0  0  0  0  0  0  0  0  0
    5.4641   -5.6200    0.0000 H   0  0  0  0  0  0  0  0  0  0  0  0
    6.0841   -5.0000    0.0000 H   0  0  0  0  0  0  0  0  0  0  0  0
    7.7331    5.3100    0.0000 H   0  0  0  0  0  0  0  0  0  0  0  0
    4.9272    5.3100    0.0000 H   0  0  0  0  0  0  0  0  0  0  0  0
    1.4631   -3.6900    0.0000 H   0  0  0  0  0  0  0  0  0  0  0  0
    2.8660   -6.1200    0.0000 H   0  0  0  0  0  0  0  0  0  0  0  0
    6.3301    6.1200    0.0000 H   0  0  0  0  0  0  0  0  0  0  0  0
    1.4631   -5.3100    0.0000 H   0  0  0  0  0  0  0  0  0  0  0  0
  1 12  1  0  0  0  0 
  1 44  1  0  0  0  0 
  2 13  1  0  0  0  0 
  2 21  1  0  0  0  0 
  3 14  1  0  0  0  0 
  3 22  1  0  0  0  0 
  4  6  1  0  0  0  0 
  4  7  1  0  0  0  0 
  4 10  1  0  0  0  0 
  5  8  1  0  0  0  0 
  5  9  1  0  0  0  0 
  5 11  1  0  0  0  0 
  6  9  1  0  0  0  0 
  6 31  1  0  0  0  0 
  6 32  1  0  0  0  0 
  7  8  1  0  0  0  0 
  7 29  1  0  0  0  0 
  7 30  1  0  0  0  0 
  8 35  1  0  0  0  0 
  8 36  1  0  0  0  0 
  9 33  1  0  0  0  0 
  9 34  1  0  0  0  0 
 10 12  1  0  0  0  0 
 10 37  1  0  0  0  0 
 10 38  1  0  0  0  0 
 11 13  1  0  0  0  0 
 11 39  1  0  0  0  0 
 11 40  1  0  0  0  0 
 12 14  1  0  0  0  0 
 12 41  1  0  0  0  0 
 13 15  1  0  0  0  0 
 13 42  1  0  0  0  0 
 14 16  1  0  0  0  0 
 14 43  1  0  0  0  0 
 15 17  2  0  0  0  0 
 15 18  1  0  0  0  0 
 16 19  2  0  0  0  0 
 16 20  1  0  0  0  0 
 17 23  1  0  0  0  0 
 17 45  1  0  0  0  0 
 18 24  2  0  0  0  0 
 18 46  1  0  0  0  0 
 19 25  1  0  0  0  0 
 19 47  1  0  0  0  0 
 20 26  2  0  0  0  0 
 20 48  1  0  0  0  0 
 21 49  1  0  0  0  0 
 21 50  1  0  0  0  0 
 21 51  1  0  0  0  0 
 22 52  1  0  0  0  0 
 22 53  1  0  0  0  0 
 22 54  1  0  0  0  0 
 23 27  2  0  0  0  0 
 23 55  1  0  0  0  0 
 24 27  1  0  0  0  0 
 24 56  1  0  0  0  0 
 25 28  2  0  0  0  0 
 25 57  1  0  0  0  0 
 26 28  1  0  0  0  0 
 26 58  1  0  0  0  0 
 27 59  1  0  0  0  0 
 28 60  1  0  0  0  0 
M  END
> <cdk:Title>
36910

> <cdk:Remark>
null

> <PUBCHEM_COMPOUND_CID>
36910

> <PUBCHEM_COMPOUND_CANONICALIZED>
1

> <PUBCHEM_CACTVS_COMPLEXITY>
416

> <PUBCHEM_CACTVS_HBOND_ACCEPTOR>
5

> <PUBCHEM_CACTVS_HBOND_DONOR>
1

> <PUBCHEM_CACTVS_ROTATABLE_BOND>
9

> <PUBCHEM_CACTVS_SUBSKEYS>
AAADcfB7MAAAAAAAAAAAAAAAAAAAAAAAAAA8YIAAAAAAAAABQAAAHgAACAAADBThmAYyAIMABgCAAiBCAAACAAAgAAAIiAAICIgLdiKAsRmVcAAmwAGbqAeQwKAOAAAAAAAAAAAAAAAAAAAAAAAAAAAAAA==

> <PUBCHEM_IUPAC_OPENEYE_NAME>
1-methoxy-3-[4-(2-methoxy-2-phenyl-ethyl)piperazin-1-yl]-1-phenyl-propan-2-ol

> <PUBCHEM_IUPAC_CAS_NAME>
1-methoxy-3-[4-(2-methoxy-2-phenylethyl)-1-piperazinyl]-1-phenyl-2-propanol

> <PUBCHEM_IUPAC_NAME>
1-methoxy-3-[4-(2-methoxy-2-phenylethyl)piperazin-1-yl]-1-phenylpropan-2-ol

> <PUBCHEM_IUPAC_SYSTEMATIC_NAME>
1-methoxy-3-[4-(2-methoxy-2-phenyl-ethyl)piperazin-1-yl]-1-phenyl-propan-2-ol

> <PUBCHEM_IUPAC_TRADITIONAL_NAME>
1-methoxy-3-[4-(2-methoxy-2-phenyl-ethyl)piperazino]-1-phenyl-propan-2-ol

> <PUBCHEM_IUPAC_INCHI>
InChI=1S/C23H32N2O3/c1-27-22(19-9-5-3-6-10-19)18-25-15-13-24(14-16-25)17-21(26)23(28-2)20-11-7-4-8-12-20/h3-12,21-23,26H,13-18H2,1-2H3

> <PUBCHEM_IUPAC_INCHIKEY>
VSTNNAYSCJQCQI-UHFFFAOYSA-N

> <PUBCHEM_XLOGP3_AA>
2.2

> <PUBCHEM_EXACT_MASS>
384.241293

> <PUBCHEM_MOLECULAR_FORMULA>
C23H32N2O3

> <PUBCHEM_MOLECULAR_WEIGHT>
384.51178

> <PUBCHEM_OPENEYE_CAN_SMILES>
COC(CN1CCN(CC1)CC(C(C2=CC=CC=C2)OC)O)C3=CC=CC=C3

> <PUBCHEM_OPENEYE_ISO_SMILES>
COC(CN1CCN(CC1)CC(C(C2=CC=CC=C2)OC)O)C3=CC=CC=C3

> <PUBCHEM_CACTVS_TPSA>
45.2

> <PUBCHEM_MONOISOTOPIC_WEIGHT>
384.241293

> <PUBCHEM_TOTAL_CHARGE>
0

> <PUBCHEM_HEAVY_ATOM_COUNT>
28

> <PUBCHEM_ATOM_DEF_STEREO_COUNT>
0

> <PUBCHEM_ATOM_UDEF_STEREO_COUNT>
3

> <PUBCHEM_BOND_DEF_STEREO_COUNT>
0

> <PUBCHEM_BOND_UDEF_STEREO_COUNT>
0

> <PUBCHEM_ISOTOPIC_ATOM_COUNT>
0

> <PUBCHEM_COMPONENT_COUNT>
1

> <PUBCHEM_CACTVS_TAUTO_COUNT>
1

> <PUBCHEM_COORDINATE_TYPE>
1
5
255

> <PUBCHEM_BONDANNOTATIONS>
12  41  3
13  42  3
14  43  3
15  17  8
15  18  8
16  19  8
16  20  8
17  23  8
18  24  8
19  25  8
20  26  8
23  27  8
24  27  8
25  28  8
26  28  8

> <DRUG_ID>
w244

> <DRUG_NAME>
Zipeprol

$$$$
3162
  CDK     0927151942
null
 42 43  0  0  0  0  0  0  0  0999 V2000
    4.0000    0.0000    0.0000 O   0  0  0  0  0  0  0  0  0  0  0  0
    6.0000   -1.7320    0.0000 N   0  0  0  0  0  0  0  0  0  0  0  0
    3.8660   -1.5000    0.0000 N   0  0  0  0  0  0  0  0  0  0  0  0
    3.0000    0.0000    0.0000 C   0  0  3  0  0  0  0  0  0  0  0  0
    3.0000    1.0000    0.0000 C   0  0  0  0  0  0  0  0  0  0  0  0
    3.0000   -1.0000    0.0000 C   0  0  0  0  0  0  0  0  0  0  0  0
    2.0000    0.0000    0.0000 C   0  0  0  0  0  0  0  0  0  0  0  0
    4.5000   -0.8660    0.0000 C   0  0  0  0  0  0  0  0  0  0  0  0
    5.5000   -0.8660    0.0000 C   0  0  0  0  0  0  0  0  0  0  0  0
    3.8660    1.5000    0.0000 C   0  0  0  0  0  0  0  0  0  0  0  0
    2.1340    1.5000    0.0000 C   0  0  0  0  0  0  0  0  0  0  0  0
    2.1340   -1.5000    0.0000 C   0  0  0  0  0  0  0  0  0  0  0  0
    3.8660    2.5000    0.0000 C   0  0  0  0  0  0  0  0  0  0  0  0
    2.1340    2.5000    0.0000 C   0  0  0  0  0  0  0  0  0  0  0  0
    2.1340   -2.5000    0.0000 C   0  0  0  0  0  0  0  0  0  0  0  0
    3.0000    3.0000    0.0000 C   0  0  0  0  0  0  0  0  0  0  0  0
    7.0000   -1.7320    0.0000 C   0  0  0  0  0  0  0  0  0  0  0  0
    5.5000   -2.5981    0.0000 C   0  0  0  0  0  0  0  0  0  0  0  0
    3.8660   -2.5000    0.0000 C   0  0  0  0  0  0  0  0  0  0  0  0
    3.0000   -3.0000    0.0000 C   0  0  0  0  0  0  0  0  0  0  0  0
    2.0000    0.6200    0.0000 H   0  0  0  0  0  0  0  0  0  0  0  0
    1.3800    0.0000    0.0000 H   0  0  0  0  0  0  0  0  0  0  0  0
    2.0000   -0.6200    0.0000 H   0  0  0  0  0  0  0  0  0  0  0  0
    3.9174   -1.0781    0.0000 H   0  0  0  0  0  0  0  0  0  0  0  0
    4.6077   -1.4766    0.0000 H   0  0  0  0  0  0  0  0  0  0  0  0
    6.0826   -0.6540    0.0000 H   0  0  0  0  0  0  0  0  0  0  0  0
    5.3923   -0.2554    0.0000 H   0  0  0  0  0  0  0  0  0  0  0  0
    4.4030    1.1900    0.0000 H   0  0  0  0  0  0  0  0  0  0  0  0
    1.5970    1.1900    0.0000 H   0  0  0  0  0  0  0  0  0  0  0  0
    1.5970   -1.1900    0.0000 H   0  0  0  0  0  0  0  0  0  0  0  0
    4.4030    2.8100    0.0000 H   0  0  0  0  0  0  0  0  0  0  0  0
    1.5970    2.8100    0.0000 H   0  0  0  0  0  0  0  0  0  0  0  0
    1.5970   -2.8100    0.0000 H   0  0  0  0  0  0  0  0  0  0  0  0
    3.0000    3.6200    0.0000 H   0  0  0  0  0  0  0  0  0  0  0  0
    7.0000   -2.3521    0.0000 H   0  0  0  0  0  0  0  0  0  0  0  0
    7.6200   -1.7320    0.0000 H   0  0  0  0  0  0  0  0  0  0  0  0
    7.0000   -1.1120    0.0000 H   0  0  0  0  0  0  0  0  0  0  0  0
    4.9631   -2.2881    0.0000 H   0  0  0  0  0  0  0  0  0  0  0  0
    5.1900   -3.1350    0.0000 H   0  0  0  0  0  0  0  0  0  0  0  0
    6.0369   -2.9081    0.0000 H   0  0  0  0  0  0  0  0  0  0  0  0
    4.4030   -2.8100    0.0000 H   0  0  0  0  0  0  0  0  0  0  0  0
    3.0000   -3.6200    0.0000 H   0  0  0  0  0  0  0  0  0  0  0  0
  1  4  1  0  0  0  0 
  1  8  1  0  0  0  0 
  2  9  1  0  0  0  0 
  2 17  1  0  0  0  0 
  2 18  1  0  0  0  0 
  3  6  1  0  0  0  0 
  3 19  2  0  0  0  0 
  4  5  1  0  0  0  0 
  4  6  1  0  0  0  0 
  4  7  1  0  0  0  0 
  5 10  2  0  0  0  0 
  5 11  1  0  0  0  0 
  6 12  2  0  0  0  0 
  7 21  1  0  0  0  0 
  7 22  1  0  0  0  0 
  7 23  1  0  0  0  0 
  8  9  1  0  0  0  0 
  8 24  1  0  0  0  0 
  8 25  1  0  0  0  0 
  9 26  1  0  0  0  0 
  9 27  1  0  0  0  0 
 10 13  1  0  0  0  0 
 10 28  1  0  0  0  0 
 11 14  2  0  0  0  0 
 11 29  1  0  0  0  0 
 12 15  1  0  0  0  0 
 12 30  1  0  0  0  0 
 13 16  2  0  0  0  0 
 13 31  1  0  0  0  0 
 14 16  1  0  0  0  0 
 14 32  1  0  0  0  0 
 15 20  2  0  0  0  0 
 15 33  1  0  0  0  0 
 16 34  1  0  0  0  0 
 17 35  1  0  0  0  0 
 17 36  1  0  0  0  0 
 17 37  1  0  0  0  0 
 18 38  1  0  0  0  0 
 18 39  1  0  0  0  0 
 18 40  1  0  0  0  0 
 19 20  1  0  0  0  0 
 19 41  1  0  0  0  0 
 20 42  1  0  0  0  0 
M  END
> <cdk:Title>
3162

> <cdk:Remark>
null

> <PUBCHEM_COMPOUND_CID>
3162

> <PUBCHEM_COMPOUND_CANONICALIZED>
1

> <PUBCHEM_CACTVS_COMPLEXITY>
276

> <PUBCHEM_CACTVS_HBOND_ACCEPTOR>
3

> <PUBCHEM_CACTVS_HBOND_DONOR>
0

> <PUBCHEM_CACTVS_ROTATABLE_BOND>
6

> <PUBCHEM_CACTVS_SUBSKEYS>
AAADceB7IAAAAAAAAAAAAAAAAAAAAAAAAAA8QAAAAAAAAAABwAAAHgAAAAAADEzhngY+gJMIFACgAzRnRASCgCAxAiAI2CA4bJgKJuLAsZmHMAhkwAHY6AeQwOAOgAAAAAAAAAAAAAAAAAAAAAAAAAAAAA==

> <PUBCHEM_IUPAC_OPENEYE_NAME>
N,N-dimethyl-2-[1-phenyl-1-(2-pyridyl)ethoxy]ethanamine

> <PUBCHEM_IUPAC_CAS_NAME>
N,N-dimethyl-2-[1-phenyl-1-(2-pyridinyl)ethoxy]ethanamine

> <PUBCHEM_IUPAC_NAME>
N,N-dimethyl-2-(1-phenyl-1-pyridin-2-ylethoxy)ethanamine

> <PUBCHEM_IUPAC_SYSTEMATIC_NAME>
N,N-dimethyl-2-(1-phenyl-1-pyridin-2-yl-ethoxy)ethanamine

> <PUBCHEM_IUPAC_TRADITIONAL_NAME>
dimethyl-[2-[1-phenyl-1-(2-pyridyl)ethoxy]ethyl]amine

> <PUBCHEM_IUPAC_INCHI>
InChI=1S/C17H22N2O/c1-17(20-14-13-19(2)3,15-9-5-4-6-10-15)16-11-7-8-12-18-16/h4-12H,13-14H2,1-3H3

> <PUBCHEM_IUPAC_INCHIKEY>
HCFDWZZGGLSKEP-UHFFFAOYSA-N

> <PUBCHEM_XLOGP3_AA>
2.5

> <PUBCHEM_EXACT_MASS>
270.173213

> <PUBCHEM_MOLECULAR_FORMULA>
C17H22N2O

> <PUBCHEM_MOLECULAR_WEIGHT>
270.36938

> <PUBCHEM_OPENEYE_CAN_SMILES>
CC(C1=CC=CC=C1)(C2=CC=CC=N2)OCCN(C)C

> <PUBCHEM_OPENEYE_ISO_SMILES>
CC(C1=CC=CC=C1)(C2=CC=CC=N2)OCCN(C)C

> <PUBCHEM_CACTVS_TPSA>
25.4

> <PUBCHEM_MONOISOTOPIC_WEIGHT>
270.173213

> <PUBCHEM_TOTAL_CHARGE>
0

> <PUBCHEM_HEAVY_ATOM_COUNT>
20

> <PUBCHEM_ATOM_DEF_STEREO_COUNT>
0

> <PUBCHEM_ATOM_UDEF_STEREO_COUNT>
1

> <PUBCHEM_BOND_DEF_STEREO_COUNT>
0

> <PUBCHEM_BOND_UDEF_STEREO_COUNT>
0

> <PUBCHEM_ISOTOPIC_ATOM_COUNT>
0

> <PUBCHEM_COMPONENT_COUNT>
1

> <PUBCHEM_CACTVS_TAUTO_COUNT>
1

> <PUBCHEM_COORDINATE_TYPE>
1
5
255

> <PUBCHEM_BONDANNOTATIONS>
10  13  8
11  14  8
12  15  8
13  16  8
14  16  8
15  20  8
19  20  8
3  19  8
3  6  8
4  7  3
5  10  8
5  11  8
6  12  8

> <DRUG_ID>
w245

> <DRUG_NAME>
Doxylamine

$$$$
19396
  CDK     0927151942
null
 45 47  0  0  0  0  0  0  0  0999 V2000
    4.6660    2.5670    0.0000 S   0  0  0  0  0  0  0  0  0  0  0  0
    5.1660    3.4330    0.0000 O   0  0  0  0  0  0  0  0  0  0  0  0
    4.1660    3.4330    0.0000 O   0  0  0  0  0  0  0  0  0  0  0  0
    4.6660    0.5670    0.0000 N   0  0  0  0  0  0  0  0  0  0  0  0
    2.9340   -2.4330    0.0000 N   0  0  0  0  0  0  0  0  0  0  0  0
    3.8000   -0.9330    0.0000 C   0  0  3  0  0  0  0  0  0  0  0  0
    4.6660   -0.4330    0.0000 C   0  0  0  0  0  0  0  0  0  0  0  0
    5.5321    1.0670    0.0000 C   0  0  0  0  0  0  0  0  0  0  0  0
    3.8000    1.0670    0.0000 C   0  0  0  0  0  0  0  0  0  0  0  0
    3.8000   -1.9330    0.0000 C   0  0  0  0  0  0  0  0  0  0  0  0
    5.5321    2.0670    0.0000 C   0  0  0  0  0  0  0  0  0  0  0  0
    3.8000    2.0670    0.0000 C   0  0  0  0  0  0  0  0  0  0  0  0
    2.9340   -0.4330    0.0000 C   0  0  0  0  0  0  0  0  0  0  0  0
    2.9061    0.5323    0.0000 C   0  0  0  0  0  0  0  0  0  0  0  0
    6.4260    0.5323    0.0000 C   0  0  0  0  0  0  0  0  0  0  0  0
    2.9061    2.6016    0.0000 C   0  0  0  0  0  0  0  0  0  0  0  0
    6.4260    2.6016    0.0000 C   0  0  0  0  0  0  0  0  0  0  0  0
    2.0000    1.0462    0.0000 C   0  0  0  0  0  0  0  0  0  0  0  0
    7.3321    1.0462    0.0000 C   0  0  0  0  0  0  0  0  0  0  0  0
    2.0000    2.0878    0.0000 C   0  0  0  0  0  0  0  0  0  0  0  0
    7.3321    2.0878    0.0000 C   0  0  0  0  0  0  0  0  0  0  0  0
    2.9340   -3.4330    0.0000 C   0  0  0  0  0  0  0  0  0  0  0  0
    2.0680   -1.9330    0.0000 C   0  0  0  0  0  0  0  0  0  0  0  0
    3.8000   -0.3130    0.0000 H   0  0  0  0  0  0  0  0  0  0  0  0
    4.8781   -1.0156    0.0000 H   0  0  0  0  0  0  0  0  0  0  0  0
    5.2766   -0.3254    0.0000 H   0  0  0  0  0  0  0  0  0  0  0  0
    4.0121   -2.5156    0.0000 H   0  0  0  0  0  0  0  0  0  0  0  0
    4.4106   -1.8254    0.0000 H   0  0  0  0  0  0  0  0  0  0  0  0
    3.2440    0.1039    0.0000 H   0  0  0  0  0  0  0  0  0  0  0  0
    2.3970   -0.1230    0.0000 H   0  0  0  0  0  0  0  0  0  0  0  0
    2.6240   -0.9699    0.0000 H   0  0  0  0  0  0  0  0  0  0  0  0
    6.4188   -0.0876    0.0000 H   0  0  0  0  0  0  0  0  0  0  0  0
    2.9132   -0.0876    0.0000 H   0  0  0  0  0  0  0  0  0  0  0  0
    6.4188    3.2216    0.0000 H   0  0  0  0  0  0  0  0  0  0  0  0
    2.9132    3.2216    0.0000 H   0  0  0  0  0  0  0  0  0  0  0  0
    1.4643    0.7341    0.0000 H   0  0  0  0  0  0  0  0  0  0  0  0
    7.8678    0.7341    0.0000 H   0  0  0  0  0  0  0  0  0  0  0  0
    1.4643    2.3999    0.0000 H   0  0  0  0  0  0  0  0  0  0  0  0
    7.8678    2.3999    0.0000 H   0  0  0  0  0  0  0  0  0  0  0  0
    2.3140   -3.4330    0.0000 H   0  0  0  0  0  0  0  0  0  0  0  0
    2.9340   -4.0530    0.0000 H   0  0  0  0  0  0  0  0  0  0  0  0
    3.5540   -3.4330    0.0000 H   0  0  0  0  0  0  0  0  0  0  0  0
    2.3780   -1.3961    0.0000 H   0  0  0  0  0  0  0  0  0  0  0  0
    1.5310   -1.6230    0.0000 H   0  0  0  0  0  0  0  0  0  0  0  0
    1.7580   -2.4700    0.0000 H   0  0  0  0  0  0  0  0  0  0  0  0
  1  2  2  0  0  0  0 
  1  3  2  0  0  0  0 
  1 11  1  0  0  0  0 
  1 12  1  0  0  0  0 
  4  7  1  0  0  0  0 
  4  8  1  0  0  0  0 
  4  9  1  0  0  0  0 
  5 10  1  0  0  0  0 
  5 22  1  0  0  0  0 
  5 23  1  0  0  0  0 
  6  7  1  0  0  0  0 
  6 10  1  0  0  0  0 
  6 13  1  0  0  0  0 
  6 24  1  0  0  0  0 
  7 25  1  0  0  0  0 
  7 26  1  0  0  0  0 
  8 11  1  0  0  0  0 
  8 15  2  0  0  0  0 
  9 12  1  0  0  0  0 
  9 14  2  0  0  0  0 
 10 27  1  0  0  0  0 
 10 28  1  0  0  0  0 
 11 17  2  0  0  0  0 
 12 16  2  0  0  0  0 
 13 29  1  0  0  0  0 
 13 30  1  0  0  0  0 
 13 31  1  0  0  0  0 
 14 18  1  0  0  0  0 
 14 33  1  0  0  0  0 
 15 19  1  0  0  0  0 
 15 32  1  0  0  0  0 
 16 20  1  0  0  0  0 
 16 35  1  0  0  0  0 
 17 21  1  0  0  0  0 
 17 34  1  0  0  0  0 
 18 20  2  0  0  0  0 
 18 36  1  0  0  0  0 
 19 21  2  0  0  0  0 
 19 37  1  0  0  0  0 
 20 38  1  0  0  0  0 
 21 39  1  0  0  0  0 
 22 40  1  0  0  0  0 
 22 41  1  0  0  0  0 
 22 42  1  0  0  0  0 
 23 43  1  0  0  0  0 
 23 44  1  0  0  0  0 
 23 45  1  0  0  0  0 
M  END
> <cdk:Title>
19396

> <cdk:Remark>
null

> <PUBCHEM_COMPOUND_CID>
19396

> <PUBCHEM_COMPOUND_CANONICALIZED>
1

> <PUBCHEM_CACTVS_COMPLEXITY>
470

> <PUBCHEM_CACTVS_HBOND_ACCEPTOR>
4

> <PUBCHEM_CACTVS_HBOND_DONOR>
0

> <PUBCHEM_CACTVS_ROTATABLE_BOND>
4

> <PUBCHEM_CACTVS_SUBSKEYS>
AAADceB7MABAAAAAAAAAAAAAAAAAAAAAAAA8YIAAAAAAAACxQAAAHAQAAAAADQjBUAQywYMAAAqAACRCQHDCAAAhChAIiBwIZIgIIGLg0ZGEIAhggADoyAcQAAAAAAAAAAAAAQAAAAAAAAACAAAAAAAAAA==

> <PUBCHEM_IUPAC_OPENEYE_NAME>
3-(5,5-dioxophenothiazin-10-yl)-N,N,2-trimethyl-propan-1-amine

> <PUBCHEM_IUPAC_CAS_NAME>
3-(5,5-dioxo-10-phenothiazinyl)-N,N,2-trimethyl-1-propanamine

> <PUBCHEM_IUPAC_NAME>
3-(5,5-dioxophenothiazin-10-yl)-N,N,2-trimethylpropan-1-amine

> <PUBCHEM_IUPAC_SYSTEMATIC_NAME>
3-[5,5-bis(oxidanylidene)phenothiazin-10-yl]-N,N,2-trimethyl-propan-1-amine

> <PUBCHEM_IUPAC_TRADITIONAL_NAME>
[3-(5,5-diketophenothiazin-10-yl)-2-methyl-propyl]-dimethyl-amine

> <PUBCHEM_IUPAC_INCHI>
InChI=1S/C18H22N2O2S/c1-14(12-19(2)3)13-20-15-8-4-6-10-17(15)23(21,22)18-11-7-5-9-16(18)20/h4-11,14H,12-13H2,1-3H3

> <PUBCHEM_IUPAC_INCHIKEY>
QTQPVLDZQVPLGV-UHFFFAOYSA-N

> <PUBCHEM_XLOGP3>
3.4

> <PUBCHEM_EXACT_MASS>
330.140199

> <PUBCHEM_MOLECULAR_FORMULA>
C18H22N2O2S

> <PUBCHEM_MOLECULAR_WEIGHT>
330.44448

> <PUBCHEM_OPENEYE_CAN_SMILES>
CC(CN1C2=CC=CC=C2S(=O)(=O)C3=CC=CC=C31)CN(C)C

> <PUBCHEM_OPENEYE_ISO_SMILES>
CC(CN1C2=CC=CC=C2S(=O)(=O)C3=CC=CC=C31)CN(C)C

> <PUBCHEM_CACTVS_TPSA>
49

> <PUBCHEM_MONOISOTOPIC_WEIGHT>
330.140199

> <PUBCHEM_TOTAL_CHARGE>
0

> <PUBCHEM_HEAVY_ATOM_COUNT>
23

> <PUBCHEM_ATOM_DEF_STEREO_COUNT>
0

> <PUBCHEM_ATOM_UDEF_STEREO_COUNT>
1

> <PUBCHEM_BOND_DEF_STEREO_COUNT>
0

> <PUBCHEM_BOND_UDEF_STEREO_COUNT>
0

> <PUBCHEM_ISOTOPIC_ATOM_COUNT>
0

> <PUBCHEM_COMPONENT_COUNT>
1

> <PUBCHEM_CACTVS_TAUTO_COUNT>
1

> <PUBCHEM_COORDINATE_TYPE>
1
5
255

> <PUBCHEM_BONDANNOTATIONS>
11  17  8
12  16  8
14  18  8
15  19  8
16  20  8
17  21  8
18  20  8
19  21  8
6  13  3
8  11  8
8  15  8
9  12  8
9  14  8

> <DRUG_ID>
w246

> <DRUG_NAME>
Oxomemazine

$$$$
5497
  CDK     0927151942
null
 27 27  0  0  0  0  0  0  0  0999 V2000
    2.0000    1.0000    0.0000 O   0  0  0  0  0  0  0  0  0  0  0  0
    3.7320    1.0000    0.0000 N   0  0  0  0  0  0  0  0  0  0  0  0
    3.7320   -2.0000    0.0000 N   0  0  0  0  0  0  0  0  0  0  0  0
    3.7320    2.0000    0.0000 C   0  0  0  0  0  0  0  0  0  0  0  0
    4.5981    0.5000    0.0000 C   0  0  0  0  0  0  0  0  0  0  0  0
    2.8660    0.5000    0.0000 C   0  0  0  0  0  0  0  0  0  0  0  0
    4.5981    2.5000    0.0000 C   0  0  0  0  0  0  0  0  0  0  0  0
    5.4641    1.0000    0.0000 C   0  0  0  0  0  0  0  0  0  0  0  0
    2.8660   -0.5000    0.0000 C   0  0  0  0  0  0  0  0  0  0  0  0
    2.0000   -1.0000    0.0000 C   0  0  0  0  0  0  0  0  0  0  0  0
    3.7320   -1.0000    0.0000 C   0  0  0  0  0  0  0  0  0  0  0  0
    2.0000   -2.0000    0.0000 C   0  0  0  0  0  0  0  0  0  0  0  0
    2.8660   -2.5000    0.0000 C   0  0  0  0  0  0  0  0  0  0  0  0
    4.1996    0.0251    0.0000 H   0  0  0  0  0  0  0  0  0  0  0  0
    4.9966    0.0251    0.0000 H   0  0  0  0  0  0  0  0  0  0  0  0
    3.5200    2.5826    0.0000 H   0  0  0  0  0  0  0  0  0  0  0  0
    3.1215    1.8923    0.0000 H   0  0  0  0  0  0  0  0  0  0  0  0
    5.7741    0.4631    0.0000 H   0  0  0  0  0  0  0  0  0  0  0  0
    6.0010    1.3100    0.0000 H   0  0  0  0  0  0  0  0  0  0  0  0
    5.1541    1.5369    0.0000 H   0  0  0  0  0  0  0  0  0  0  0  0
    4.9081    1.9631    0.0000 H   0  0  0  0  0  0  0  0  0  0  0  0
    5.1350    2.8100    0.0000 H   0  0  0  0  0  0  0  0  0  0  0  0
    4.2881    3.0369    0.0000 H   0  0  0  0  0  0  0  0  0  0  0  0
    1.4631   -0.6900    0.0000 H   0  0  0  0  0  0  0  0  0  0  0  0
    4.2690   -0.6900    0.0000 H   0  0  0  0  0  0  0  0  0  0  0  0
    1.4631   -2.3100    0.0000 H   0  0  0  0  0  0  0  0  0  0  0  0
    2.8660   -3.1200    0.0000 H   0  0  0  0  0  0  0  0  0  0  0  0
  1  6  2  0  0  0  0 
  2  4  1  0  0  0  0 
  2  5  1  0  0  0  0 
  2  6  1  0  0  0  0 
  3 11  1  0  0  0  0 
  3 13  2  0  0  0  0 
  4  7  1  0  0  0  0 
  4 16  1  0  0  0  0 
  4 17  1  0  0  0  0 
  5  8  1  0  0  0  0 
  5 14  1  0  0  0  0 
  5 15  1  0  0  0  0 
  6  9  1  0  0  0  0 
  7 21  1  0  0  0  0 
  7 22  1  0  0  0  0 
  7 23  1  0  0  0  0 
  8 18  1  0  0  0  0 
  8 19  1  0  0  0  0 
  8 20  1  0  0  0  0 
  9 10  1  0  0  0  0 
  9 11  2  0  0  0  0 
 10 12  2  0  0  0  0 
 10 24  1  0  0  0  0 
 11 25  1  0  0  0  0 
 12 13  1  0  0  0  0 
 12 26  1  0  0  0  0 
 13 27  1  0  0  0  0 
M  END
> <cdk:Title>
5497

> <cdk:Remark>
null

> <PUBCHEM_COMPOUND_CID>
5497

> <PUBCHEM_COMPOUND_CANONICALIZED>
1

> <PUBCHEM_CACTVS_COMPLEXITY>
166

> <PUBCHEM_CACTVS_HBOND_ACCEPTOR>
2

> <PUBCHEM_CACTVS_HBOND_DONOR>
0

> <PUBCHEM_CACTVS_ROTATABLE_BOND>
3

> <PUBCHEM_CACTVS_SUBSKEYS>
AAADccBzIAAAAAAAAAAAAAAAAAAAAAAAAAAsAAAAAAAAAAABgAAAHgAAAAAADADBmgQ+gJMIEACoAjF3VACCgCA1AiAI2CE4ZNgIIPrA1ZGEIYhghgDIycYYAQAMAAAAAAAAAAAAAAAAAAAAAAAAAAAAAA==

> <PUBCHEM_IUPAC_OPENEYE_NAME>
N,N-diethylpyridine-3-carboxamide

> <PUBCHEM_IUPAC_CAS_NAME>
N,N-diethyl-3-pyridinecarboxamide

> <PUBCHEM_IUPAC_NAME>
N,N-diethylpyridine-3-carboxamide

> <PUBCHEM_IUPAC_SYSTEMATIC_NAME>
N,N-diethylpyridine-3-carboxamide

> <PUBCHEM_IUPAC_TRADITIONAL_NAME>
N,N-diethylnicotinamide

> <PUBCHEM_IUPAC_INCHI>
InChI=1S/C10H14N2O/c1-3-12(4-2)10(13)9-6-5-7-11-8-9/h5-8H,3-4H2,1-2H3

> <PUBCHEM_IUPAC_INCHIKEY>
NCYVXEGFNDZQCU-UHFFFAOYSA-N

> <PUBCHEM_XLOGP3>
0.3

> <PUBCHEM_EXACT_MASS>
178.110613

> <PUBCHEM_MOLECULAR_FORMULA>
C10H14N2O

> <PUBCHEM_MOLECULAR_WEIGHT>
178.23096

> <PUBCHEM_OPENEYE_CAN_SMILES>
CCN(CC)C(=O)C1=CN=CC=C1

> <PUBCHEM_OPENEYE_ISO_SMILES>
CCN(CC)C(=O)C1=CN=CC=C1

> <PUBCHEM_CACTVS_TPSA>
33.2

> <PUBCHEM_MONOISOTOPIC_WEIGHT>
178.110613

> <PUBCHEM_TOTAL_CHARGE>
0

> <PUBCHEM_HEAVY_ATOM_COUNT>
13

> <PUBCHEM_ATOM_DEF_STEREO_COUNT>
0

> <PUBCHEM_ATOM_UDEF_STEREO_COUNT>
0

> <PUBCHEM_BOND_DEF_STEREO_COUNT>
0

> <PUBCHEM_BOND_UDEF_STEREO_COUNT>
0

> <PUBCHEM_ISOTOPIC_ATOM_COUNT>
0

> <PUBCHEM_COMPONENT_COUNT>
1

> <PUBCHEM_CACTVS_TAUTO_COUNT>
1

> <PUBCHEM_COORDINATE_TYPE>
1
5
255

> <PUBCHEM_BONDANNOTATIONS>
10  12  8
12  13  8
3  11  8
3  13  8
9  10  8
9  11  8

> <DRUG_ID>
w247

> <DRUG_NAME>
Nikethamide

$$$$
9898639
  CDK     0927151942
null
219225  0  0  0  0  0  0  0  0999 V2000
   16.2882    1.6200    0.0000 O   0  0  0  0  0  0  0  0  0  0  0  0
    4.2181    8.5767    0.0000 O   0  0  0  0  0  0  0  0  0  0  0  0
   18.0203    4.6200    0.0000 O   0  0  0  0  0  0  0  0  0  0  0  0
    5.9501   11.5767    0.0000 O   0  0  0  0  0  0  0  0  0  0  0  0
   18.6467   17.7051    0.0000 O   0  0  0  0  0  0  0  0  0  0  0  0
   16.9147   14.7051    0.0000 O   0  0  0  0  0  0  0  0  0  0  0  0
   16.2882    3.6200    0.0000 O   0  0  0  0  0  0  0  0  0  0  0  0
    4.2181   10.5767    0.0000 O   0  0  0  0  0  0  0  0  0  0  0  0
   15.4222    3.1200    0.0000 O   0  0  0  0  0  0  0  0  0  0  0  0
    3.3520   10.0767    0.0000 O   0  0  0  0  0  0  0  0  0  0  0  0
   16.9147   16.7051    0.0000 O   0  0  0  0  0  0  0  0  0  0  0  0
   19.5203    5.4860    0.0000 O   0  0  0  0  0  0  0  0  0  0  0  0
   16.9147   17.7051    0.0000 O   0  0  0  0  0  0  0  0  0  0  0  0
    7.4501   12.4427    0.0000 O   0  0  0  0  0  0  0  0  0  0  0  0
   16.9147   12.9731    0.0000 O   0  0  0  0  0  0  0  0  0  0  0  0
   14.5562    0.6200    0.0000 O   0  0  0  0  0  0  0  0  0  0  0  0
    2.4860    7.5767    0.0000 O   0  0  0  0  0  0  0  0  0  0  0  0
   13.1901    3.9860    0.0000 O   0  0  0  0  0  0  0  0  0  0  0  0
   18.6467   19.7051    0.0000 O   0  0  0  0  0  0  0  0  0  0  0  0
    1.1200   10.9427    0.0000 O   0  0  0  0  0  0  0  0  0  0  0  0
   15.0486   19.2051    0.0000 O   0  0  0  0  0  0  0  0  0  0  0  0
   18.0203    0.6200    0.0000 N   0  0  0  0  0  0  0  0  0  0  0  0
   19.8863    3.1200    0.0000 N   0  0  0  0  0  0  0  0  0  0  0  0
    5.9501    7.5767    0.0000 N   0  0  0  0  0  0  0  0  0  0  0  0
    7.8162   10.0767    0.0000 N   0  0  0  0  0  0  0  0  0  0  0  0
   20.3788   16.7051    0.0000 N   0  0  0  0  0  0  0  0  0  0  0  0
   19.1468   13.8392    0.0000 N   0  0  0  0  0  0  0  0  0  0  0  0
   12.8241    1.6200    0.0000 N   0  0  0  0  0  0  0  0  0  0  0  0
    0.7540    8.5767    0.0000 N   0  0  0  0  0  0  0  0  0  0  0  0
   16.9147   20.7051    0.0000 N   0  0  0  0  0  0  0  0  0  0  0  0
   17.0203    6.3520    0.0000 N   0  0  0  0  0  0  0  0  0  0  0  0
    4.9501   13.3088    0.0000 N   0  0  0  0  0  0  0  0  0  0  0  0
   14.9147   14.7052    0.0000 N   0  0  0  0  0  0  0  0  0  0  0  0
   21.5203    7.2181    0.0000 N   0  0  0  0  0  0  0  0  0  0  0  0
    9.4501   14.1748    0.0000 N   0  0  0  0  0  0  0  0  0  0  0  0
   16.4147   10.3750    0.0000 N   0  0  0  0  0  0  0  0  0  0  0  0
   17.1542    2.1200    0.0000 C   0  0  2  0  0  0  0  0  0  0  0  0
   18.0203    3.6200    0.0000 C   0  0  1  0  0  0  0  0  0  0  0  0
    5.0841    9.0767    0.0000 C   0  0  2  0  0  0  0  0  0  0  0  0
    5.9501   10.5767    0.0000 C   0  0  1  0  0  0  0  0  0  0  0  0
   17.1542    3.1200    0.0000 C   0  0  2  0  0  0  0  0  0  0  0  0
   18.0203    1.6200    0.0000 C   0  0  1  0  0  0  0  0  0  0  0  0
   18.8863    3.1200    0.0000 C   0  0  2  0  0  0  0  0  0  0  0  0
    5.0841   10.0767    0.0000 C   0  0  2  0  0  0  0  0  0  0  0  0
    5.9501    8.5767    0.0000 C   0  0  1  0  0  0  0  0  0  0  0  0
    6.8162   10.0767    0.0000 C   0  0  2  0  0  0  0  0  0  0  0  0
   18.6467   16.7051    0.0000 C   0  0  2  0  0  0  0  0  0  0  0  0
   17.7807   15.2051    0.0000 C   0  0  1  0  0  0  0  0  0  0  0  0
   18.8863    2.1200    0.0000 C   0  0  0  0  0  0  0  0  0  0  0  0
   17.7807   16.2051    0.0000 C   0  0  2  0  0  0  0  0  0  0  0  0
    6.8162    9.0767    0.0000 C   0  0  0  0  0  0  0  0  0  0  0  0
   19.5127   16.2051    0.0000 C   0  0  1  0  0  0  0  0  0  0  0  0
   18.6467   14.7051    0.0000 C   0  0  2  0  0  0  0  0  0  0  0  0
   19.5127   15.2051    0.0000 C   0  0  0  0  0  0  0  0  0  0  0  0
   15.4222    2.1200    0.0000 C   0  0  1  0  0  0  0  0  0  0  0  0
    3.3520    9.0767    0.0000 C   0  0  1  0  0  0  0  0  0  0  0  0
   18.5203    5.4860    0.0000 C   0  0  1  0  0  0  0  0  0  0  0  0
   14.5562    1.6200    0.0000 C   0  0  1  0  0  0  0  0  0  0  0  0
   17.7807   18.2051    0.0000 C   0  0  1  0  0  0  0  0  0  0  0  0
   13.6901    2.1200    0.0000 C   0  0  2  0  0  0  0  0  0  0  0  0
    2.4860    8.5767    0.0000 C   0  0  1  0  0  0  0  0  0  0  0  0
    1.6200    9.0767    0.0000 C   0  0  2  0  0  0  0  0  0  0  0  0
    6.4501   12.4427    0.0000 C   0  0  1  0  0  0  0  0  0  0  0  0
   13.6901    3.1200    0.0000 C   0  0  2  0  0  0  0  0  0  0  0  0
   17.7807   19.2051    0.0000 C   0  0  1  0  0  0  0  0  0  0  0  0
   16.9147   19.7051    0.0000 C   0  0  2  0  0  0  0  0  0  0  0  0
    1.6200   10.0767    0.0000 C   0  0  2  0  0  0  0  0  0  0  0  0
   18.0203    6.3520    0.0000 C   0  0  1  0  0  0  0  0  0  0  0  0
   16.0486   19.2051    0.0000 C   0  0  2  0  0  0  0  0  0  0  0  0
   16.4148   13.8391    0.0000 C   0  0  1  0  0  0  0  0  0  0  0  0
    5.9501   13.3088    0.0000 C   0  0  1  0  0  0  0  0  0  0  0  0
   20.0203    6.3520    0.0000 C   0  0  1  0  0  0  0  0  0  0  0  0
   18.5203    7.2181    0.0000 C   0  0  0  0  0  0  0  0  0  0  0  0
   14.5562    3.6200    0.0000 C   0  0  0  0  0  0  0  0  0  0  0  0
    2.4860   10.5767    0.0000 C   0  0  0  0  0  0  0  0  0  0  0  0
   19.5203    7.2181    0.0000 C   0  0  0  0  0  0  0  0  0  0  0  0
   15.4147   13.8391    0.0000 C   0  0  1  0  0  0  0  0  0  0  0  0
    7.9501   13.3088    0.0000 C   0  0  1  0  0  0  0  0  0  0  0  0
    6.4501   14.1748    0.0000 C   0  0  0  0  0  0  0  0  0  0  0  0
   16.0486   18.2051    0.0000 C   0  0  0  0  0  0  0  0  0  0  0  0
    7.4501   14.1748    0.0000 C   0  0  0  0  0  0  0  0  0  0  0  0
   14.9147   12.9730    0.0000 C   0  0  0  0  0  0  0  0  0  0  0  0
   21.0203    6.3520    0.0000 C   0  0  3  0  0  0  0  0  0  0  0  0
   16.4147   12.1071    0.0000 C   0  0  1  0  0  0  0  0  0  0  0  0
   15.4148   12.1070    0.0000 C   0  0  0  0  0  0  0  0  0  0  0  0
   12.6901    3.1200    0.0000 C   0  0  0  0  0  0  0  0  0  0  0  0
    0.6200   10.0767    0.0000 C   0  0  0  0  0  0  0  0  0  0  0  0
   15.5486   20.0712    0.0000 C   0  0  0  0  0  0  0  0  0  0  0  0
    8.9501   13.3088    0.0000 C   0  0  3  0  0  0  0  0  0  0  0  0
   16.9147   11.2410    0.0000 C   0  0  0  0  0  0  0  0  0  0  0  0
   21.5203    5.4860    0.0000 C   0  0  0  0  0  0  0  0  0  0  0  0
   12.8241    0.6200    0.0000 C   0  0  0  0  0  0  0  0  0  0  0  0
    0.7540    7.5767    0.0000 C   0  0  0  0  0  0  0  0  0  0  0  0
    9.4501   12.4427    0.0000 C   0  0  0  0  0  0  0  0  0  0  0  0
   17.7807   21.2051    0.0000 C   0  0  0  0  0  0  0  0  0  0  0  0
   22.5203    7.2181    0.0000 C   0  0  0  0  0  0  0  0  0  0  0  0
   16.6173    2.4300    0.0000 H   0  0  0  0  0  0  0  0  0  0  0  0
   18.5572    3.9300    0.0000 H   0  0  0  0  0  0  0  0  0  0  0  0
    5.0841    8.4567    0.0000 H   0  0  0  0  0  0  0  0  0  0  0  0
    6.4871   10.8867    0.0000 H   0  0  0  0  0  0  0  0  0  0  0  0
   16.6173    2.8100    0.0000 H   0  0  0  0  0  0  0  0  0  0  0  0
   18.5572    1.3100    0.0000 H   0  0  0  0  0  0  0  0  0  0  0  0
   19.0467    3.7189    0.0000 H   0  0  0  0  0  0  0  0  0  0  0  0
    5.0841   10.6967    0.0000 H   0  0  0  0  0  0  0  0  0  0  0  0
    6.4871    8.2667    0.0000 H   0  0  0  0  0  0  0  0  0  0  0  0
    6.9766   10.6756    0.0000 H   0  0  0  0  0  0  0  0  0  0  0  0
   18.1098   17.0151    0.0000 H   0  0  0  0  0  0  0  0  0  0  0  0
   17.2438   15.5151    0.0000 H   0  0  0  0  0  0  0  0  0  0  0  0
   19.0983    1.5374    0.0000 H   0  0  0  0  0  0  0  0  0  0  0  0
   19.4969    2.2277    0.0000 H   0  0  0  0  0  0  0  0  0  0  0  0
   17.2438   15.8951    0.0000 H   0  0  0  0  0  0  0  0  0  0  0  0
    7.0282    8.4941    0.0000 H   0  0  0  0  0  0  0  0  0  0  0  0
    7.4267    9.1844    0.0000 H   0  0  0  0  0  0  0  0  0  0  0  0
   20.0497   15.8951    0.0000 H   0  0  0  0  0  0  0  0  0  0  0  0
   18.2083   14.2667    0.0000 H   0  0  0  0  0  0  0  0  0  0  0  0
   19.7248   14.6225    0.0000 H   0  0  0  0  0  0  0  0  0  0  0  0
   20.1233   15.3128    0.0000 H   0  0  0  0  0  0  0  0  0  0  0  0
   15.4222    1.5000    0.0000 H   0  0  0  0  0  0  0  0  0  0  0  0
    3.3520    8.4567    0.0000 H   0  0  0  0  0  0  0  0  0  0  0  0
   17.9003    5.4860    0.0000 H   0  0  0  0  0  0  0  0  0  0  0  0
   15.0931    1.3100    0.0000 H   0  0  0  0  0  0  0  0  0  0  0  0
   18.3176   18.5151    0.0000 H   0  0  0  0  0  0  0  0  0  0  0  0
   13.6901    1.5000    0.0000 H   0  0  0  0  0  0  0  0  0  0  0  0
    3.0230    8.2667    0.0000 H   0  0  0  0  0  0  0  0  0  0  0  0
    1.6200    8.4567    0.0000 H   0  0  0  0  0  0  0  0  0  0  0  0
    5.8301   12.4427    0.0000 H   0  0  0  0  0  0  0  0  0  0  0  0
   18.3176   18.8951    0.0000 H   0  0  0  0  0  0  0  0  0  0  0  0
   17.4516   20.0151    0.0000 H   0  0  0  0  0  0  0  0  0  0  0  0
   17.7103    5.8151    0.0000 H   0  0  0  0  0  0  0  0  0  0  0  0
   16.1047   14.3760    0.0000 H   0  0  0  0  0  0  0  0  0  0  0  0
    5.6401   12.7718    0.0000 H   0  0  0  0  0  0  0  0  0  0  0  0
   18.5572    0.3100    0.0000 H   0  0  0  0  0  0  0  0  0  0  0  0
   17.4833    0.3100    0.0000 H   0  0  0  0  0  0  0  0  0  0  0  0
   20.1963    2.5831    0.0000 H   0  0  0  0  0  0  0  0  0  0  0  0
   20.1963    3.6569    0.0000 H   0  0  0  0  0  0  0  0  0  0  0  0
    6.4871    7.2667    0.0000 H   0  0  0  0  0  0  0  0  0  0  0  0
    5.4132    7.2667    0.0000 H   0  0  0  0  0  0  0  0  0  0  0  0
   20.3303    5.8151    0.0000 H   0  0  0  0  0  0  0  0  0  0  0  0
    8.1262    9.5398    0.0000 H   0  0  0  0  0  0  0  0  0  0  0  0
    8.1262   10.6136    0.0000 H   0  0  0  0  0  0  0  0  0  0  0  0
   18.6279    7.8287    0.0000 H   0  0  0  0  0  0  0  0  0  0  0  0
   17.9376    7.4301    0.0000 H   0  0  0  0  0  0  0  0  0  0  0  0
   14.9547    4.0950    0.0000 H   0  0  0  0  0  0  0  0  0  0  0  0
   14.1576    4.0950    0.0000 H   0  0  0  0  0  0  0  0  0  0  0  0
    2.8846   11.0517    0.0000 H   0  0  0  0  0  0  0  0  0  0  0  0
    2.0875   11.0517    0.0000 H   0  0  0  0  0  0  0  0  0  0  0  0
   20.9157   16.3951    0.0000 H   0  0  0  0  0  0  0  0  0  0  0  0
   20.3788   17.3251    0.0000 H   0  0  0  0  0  0  0  0  0  0  0  0
   20.1029    7.4301    0.0000 H   0  0  0  0  0  0  0  0  0  0  0  0
   19.4126    7.8287    0.0000 H   0  0  0  0  0  0  0  0  0  0  0  0
   14.7947   13.8391    0.0000 H   0  0  0  0  0  0  0  0  0  0  0  0
   19.7667   13.8391    0.0000 H   0  0  0  0  0  0  0  0  0  0  0  0
   18.8368   13.3022    0.0000 H   0  0  0  0  0  0  0  0  0  0  0  0
    8.2601   12.7718    0.0000 H   0  0  0  0  0  0  0  0  0  0  0  0
    6.5578   14.7854    0.0000 H   0  0  0  0  0  0  0  0  0  0  0  0
    5.8675   14.3868    0.0000 H   0  0  0  0  0  0  0  0  0  0  0  0
   15.4381   18.3128    0.0000 H   0  0  0  0  0  0  0  0  0  0  0  0
   15.8366   17.6225    0.0000 H   0  0  0  0  0  0  0  0  0  0  0  0
   16.2882    4.2400    0.0000 H   0  0  0  0  0  0  0  0  0  0  0  0
    4.2181   11.1967    0.0000 H   0  0  0  0  0  0  0  0  0  0  0  0
    8.0327   14.3868    0.0000 H   0  0  0  0  0  0  0  0  0  0  0  0
    7.3425   14.7854    0.0000 H   0  0  0  0  0  0  0  0  0  0  0  0
   16.3777   16.3951    0.0000 H   0  0  0  0  0  0  0  0  0  0  0  0
   14.4398   13.3716    0.0000 H   0  0  0  0  0  0  0  0  0  0  0  0
   14.4398   12.5745    0.0000 H   0  0  0  0  0  0  0  0  0  0  0  0
   21.8703    6.3520    0.0000 H   0  0  0  0  0  0  0  0  0  0  0  0
   17.0347   12.1071    0.0000 H   0  0  0  0  0  0  0  0  0  0  0  0
   14.8322   11.8949    0.0000 H   0  0  0  0  0  0  0  0  0  0  0  0
   15.5224   11.4964    0.0000 H   0  0  0  0  0  0  0  0  0  0  0  0
   12.6901    3.7400    0.0000 H   0  0  0  0  0  0  0  0  0  0  0  0
   12.0701    3.1200    0.0000 H   0  0  0  0  0  0  0  0  0  0  0  0
   12.6901    2.5000    0.0000 H   0  0  0  0  0  0  0  0  0  0  0  0
    0.6200   10.6967    0.0000 H   0  0  0  0  0  0  0  0  0  0  0  0
    0.0000   10.0767    0.0000 H   0  0  0  0  0  0  0  0  0  0  0  0
    0.6200    9.4567    0.0000 H   0  0  0  0  0  0  0  0  0  0  0  0
   12.2872    1.9300    0.0000 H   0  0  0  0  0  0  0  0  0  0  0  0
    0.2170    8.8867    0.0000 H   0  0  0  0  0  0  0  0  0  0  0  0
   16.0856   20.3812    0.0000 H   0  0  0  0  0  0  0  0  0  0  0  0
   15.2386   20.6081    0.0000 H   0  0  0  0  0  0  0  0  0  0  0  0
   15.0117   19.7612    0.0000 H   0  0  0  0  0  0  0  0  0  0  0  0
    9.8001   13.3088    0.0000 H   0  0  0  0  0  0  0  0  0  0  0  0
   16.3777   21.0151    0.0000 H   0  0  0  0  0  0  0  0  0  0  0  0
   16.7103    6.8890    0.0000 H   0  0  0  0  0  0  0  0  0  0  0  0
   16.7103    5.8151    0.0000 H   0  0  0  0  0  0  0  0  0  0  0  0
   15.0931    0.3100    0.0000 H   0  0  0  0  0  0  0  0  0  0  0  0
    3.0230    7.2667    0.0000 H   0  0  0  0  0  0  0  0  0  0  0  0
    4.6401   13.8457    0.0000 H   0  0  0  0  0  0  0  0  0  0  0  0
    4.6401   12.7718    0.0000 H   0  0  0  0  0  0  0  0  0  0  0  0
   13.5001    4.5230    0.0000 H   0  0  0  0  0  0  0  0  0  0  0  0
   19.1837   19.3951    0.0000 H   0  0  0  0  0  0  0  0  0  0  0  0
    1.4300   11.4797    0.0000 H   0  0  0  0  0  0  0  0  0  0  0  0
   14.7386   18.6682    0.0000 H   0  0  0  0  0  0  0  0  0  0  0  0
   14.2947   14.7052    0.0000 H   0  0  0  0  0  0  0  0  0  0  0  0
   15.2247   15.2421    0.0000 H   0  0  0  0  0  0  0  0  0  0  0  0
   17.3896   10.8425    0.0000 H   0  0  0  0  0  0  0  0  0  0  0  0
   17.3896   11.6396    0.0000 H   0  0  0  0  0  0  0  0  0  0  0  0
   20.9833    5.1760    0.0000 H   0  0  0  0  0  0  0  0  0  0  0  0
   21.8303    4.9491    0.0000 H   0  0  0  0  0  0  0  0  0  0  0  0
   22.0572    5.7960    0.0000 H   0  0  0  0  0  0  0  0  0  0  0  0
   12.2041    0.6200    0.0000 H   0  0  0  0  0  0  0  0  0  0  0  0
   12.8241    0.0000    0.0000 H   0  0  0  0  0  0  0  0  0  0  0  0
   13.4441    0.6200    0.0000 H   0  0  0  0  0  0  0  0  0  0  0  0
   21.2103    7.7550    0.0000 H   0  0  0  0  0  0  0  0  0  0  0  0
    0.1340    7.5767    0.0000 H   0  0  0  0  0  0  0  0  0  0  0  0
    0.7540    6.9567    0.0000 H   0  0  0  0  0  0  0  0  0  0  0  0
    1.3740    7.5767    0.0000 H   0  0  0  0  0  0  0  0  0  0  0  0
    8.9132   12.1327    0.0000 H   0  0  0  0  0  0  0  0  0  0  0  0
    9.7601   11.9058    0.0000 H   0  0  0  0  0  0  0  0  0  0  0  0
    9.9871   12.7527    0.0000 H   0  0  0  0  0  0  0  0  0  0  0  0
   18.0907   20.6682    0.0000 H   0  0  0  0  0  0  0  0  0  0  0  0
   18.3176   21.5151    0.0000 H   0  0  0  0  0  0  0  0  0  0  0  0
   17.4707   21.7421    0.0000 H   0  0  0  0  0  0  0  0  0  0  0  0
   10.0701   14.1748    0.0000 H   0  0  0  0  0  0  0  0  0  0  0  0
    9.1401   14.7117    0.0000 H   0  0  0  0  0  0  0  0  0  0  0  0
   22.5203    6.5981    0.0000 H   0  0  0  0  0  0  0  0  0  0  0  0
   23.1403    7.2181    0.0000 H   0  0  0  0  0  0  0  0  0  0  0  0
   22.5203    7.8381    0.0000 H   0  0  0  0  0  0  0  0  0  0  0  0
   16.7247    9.8381    0.0000 H   0  0  0  0  0  0  0  0  0  0  0  0
   15.7947   10.3750    0.0000 H   0  0  0  0  0  0  0  0  0  0  0  0
 37  1  1  6  0  0  0 
 55  1  1  6  0  0  0 
 39  2  1  6  0  0  0 
 56  2  1  6  0  0  0 
 38  3  1  6  0  0  0 
 57  3  1  6  0  0  0 
 40  4  1  6  0  0  0 
 63  4  1  6  0  0  0 
 47  5  1  1  0  0  0 
 59  5  1  1  0  0  0 
 48  6  1  1  0  0  0 
 70  6  1  1  0  0  0 
 41  7  1  1  0  0  0 
  7159  1  0  0  0  0 
 44  8  1  1  0  0  0 
  8160  1  0  0  0  0 
  9 55  1  0  0  0  0 
  9 74  1  0  0  0  0 
 10 56  1  0  0  0  0 
 10 75  1  0  0  0  0 
 50 11  1  6  0  0  0 
 11163  1  0  0  0  0 
 12 57  1  0  0  0  0 
 12 72  1  0  0  0  0 
 13 59  1  0  0  0  0 
 13 80  1  0  0  0  0 
 14 63  1  0  0  0  0 
 14 78  1  0  0  0  0 
 15 70  1  0  0  0  0 
 15 84  1  0  0  0  0 
 58 16  1  6  0  0  0 
 16185  1  0  0  0  0 
 61 17  1  6  0  0  0 
 17186  1  0  0  0  0 
 64 18  1  1  0  0  0 
 18189  1  0  0  0  0 
 65 19  1  1  0  0  0 
 19190  1  0  0  0  0 
 67 20  1  1  0  0  0 
 20191  1  0  0  0  0 
 69 21  1  6  0  0  0 
 21192  1  0  0  0  0 
 42 22  1  1  0  0  0 
 22132  1  0  0  0  0 
 22133  1  0  0  0  0 
 43 23  1  1  0  0  0 
 23134  1  0  0  0  0 
 23135  1  0  0  0  0 
 45 24  1  1  0  0  0 
 24136  1  0  0  0  0 
 24137  1  0  0  0  0 
 46 25  1  1  0  0  0 
 25139  1  0  0  0  0 
 25140  1  0  0  0  0 
 52 26  1  6  0  0  0 
 26147  1  0  0  0  0 
 26148  1  0  0  0  0 
 53 27  1  6  0  0  0 
 27152  1  0  0  0  0 
 27153  1  0  0  0  0 
 60 28  1  1  0  0  0 
 28 92  1  0  0  0  0 
 28176  1  0  0  0  0 
 62 29  1  1  0  0  0 
 29 93  1  0  0  0  0 
 29177  1  0  0  0  0 
 66 30  1  6  0  0  0 
 30 95  1  0  0  0  0 
 30182  1  0  0  0  0 
 68 31  1  6  0  0  0 
 31183  1  0  0  0  0 
 31184  1  0  0  0  0 
 71 32  1  6  0  0  0 
 32187  1  0  0  0  0 
 32188  1  0  0  0  0 
 77 33  1  1  0  0  0 
 33193  1  0  0  0  0 
 33194  1  0  0  0  0 
 34 83  1  0  0  0  0 
 34 96  1  0  0  0  0 
 34203  1  0  0  0  0 
 35 89  1  0  0  0  0 
 35213  1  0  0  0  0 
 35214  1  0  0  0  0 
 36 90  1  0  0  0  0 
 36218  1  0  0  0  0 
 36219  1  0  0  0  0 
 37 41  1  0  0  0  0 
 37 42  1  0  0  0  0 
 37 97  1  0  0  0  0 
 38 41  1  0  0  0  0 
 38 43  1  0  0  0  0 
 38 98  1  0  0  0  0 
 39 44  1  0  0  0  0 
 39 45  1  0  0  0  0 
 39 99  1  0  0  0  0 
 40 44  1  0  0  0  0 
 40 46  1  0  0  0  0 
 40100  1  0  0  0  0 
 41101  1  0  0  0  0 
 42 49  1  0  0  0  0 
 42102  1  0  0  0  0 
 43 49  1  0  0  0  0 
 43103  1  0  0  0  0 
 44104  1  0  0  0  0 
 45 51  1  0  0  0  0 
 45105  1  0  0  0  0 
 46 51  1  0  0  0  0 
 46106  1  0  0  0  0 
 47 50  1  0  0  0  0 
 47 52  1  0  0  0  0 
 47107  1  0  0  0  0 
 48 50  1  0  0  0  0 
 48 53  1  0  0  0  0 
 48108  1  0  0  0  0 
 49109  1  0  0  0  0 
 49110  1  0  0  0  0 
 50111  1  0  0  0  0 
 51112  1  0  0  0  0 
 51113  1  0  0  0  0 
 52 54  1  0  0  0  0 
 52114  1  0  0  0  0 
 53 54  1  0  0  0  0 
 53115  1  0  0  0  0 
 54116  1  0  0  0  0 
 54117  1  0  0  0  0 
 55 58  1  0  0  0  0 
 55118  1  0  0  0  0 
 56 61  1  0  0  0  0 
 56119  1  0  0  0  0 
 57 68  1  0  0  0  0 
 57120  1  0  0  0  0 
 58 60  1  0  0  0  0 
 58121  1  0  0  0  0 
 59 65  1  0  0  0  0 
 59122  1  0  0  0  0 
 60 64  1  0  0  0  0 
 60123  1  0  0  0  0 
 61 62  1  0  0  0  0 
 61124  1  0  0  0  0 
 62 67  1  0  0  0  0 
 62125  1  0  0  0  0 
 63 71  1  0  0  0  0 
 63126  1  0  0  0  0 
 64 74  1  0  0  0  0 
 64 86  1  0  0  0  0 
 65 66  1  0  0  0  0 
 65127  1  0  0  0  0 
 66 69  1  0  0  0  0 
 66128  1  0  0  0  0 
 67 75  1  0  0  0  0 
 67 87  1  0  0  0  0 
 68 73  1  0  0  0  0 
 68129  1  0  0  0  0 
 69 80  1  0  0  0  0 
 69 88  1  0  0  0  0 
 70 77  1  0  0  0  0 
 70130  1  0  0  0  0 
 71 79  1  0  0  0  0 
 71131  1  0  0  0  0 
 72 76  1  0  0  0  0 
 72 83  1  1  0  0  0 
 72138  1  0  0  0  0 
 73 76  1  0  0  0  0 
 73141  1  0  0  0  0 
 73142  1  0  0  0  0 
 74143  1  0  0  0  0 
 74144  1  0  0  0  0 
 75145  1  0  0  0  0 
 75146  1  0  0  0  0 
 76149  1  0  0  0  0 
 76150  1  0  0  0  0 
 77 82  1  0  0  0  0 
 77151  1  0  0  0  0 
 78 81  1  0  0  0  0 
 78 89  1  1  0  0  0 
 78154  1  0  0  0  0 
 79 81  1  0  0  0  0 
 79155  1  0  0  0  0 
 79156  1  0  0  0  0 
 80157  1  0  0  0  0 
 80158  1  0  0  0  0 
 81161  1  0  0  0  0 
 81162  1  0  0  0  0 
 82 85  1  0  0  0  0 
 82164  1  0  0  0  0 
 82165  1  0  0  0  0 
 83 91  1  0  0  0  0 
 83166  1  0  0  0  0 
 84 85  1  0  0  0  0 
 84 90  1  6  0  0  0 
 84167  1  0  0  0  0 
 85168  1  0  0  0  0 
 85169  1  0  0  0  0 
 86170  1  0  0  0  0 
 86171  1  0  0  0  0 
 86172  1  0  0  0  0 
 87173  1  0  0  0  0 
 87174  1  0  0  0  0 
 87175  1  0  0  0  0 
 88178  1  0  0  0  0 
 88179  1  0  0  0  0 
 88180  1  0  0  0  0 
 89 94  1  0  0  0  0 
 89181  1  0  0  0  0 
 90195  1  0  0  0  0 
 90196  1  0  0  0  0 
 91197  1  0  0  0  0 
 91198  1  0  0  0  0 
 91199  1  0  0  0  0 
 92200  1  0  0  0  0 
 92201  1  0  0  0  0 
 92202  1  0  0  0  0 
 93204  1  0  0  0  0 
 93205  1  0  0  0  0 
 93206  1  0  0  0  0 
 94207  1  0  0  0  0 
 94208  1  0  0  0  0 
 94209  1  0  0  0  0 
 95210  1  0  0  0  0 
 95211  1  0  0  0  0 
 95212  1  0  0  0  0 
 96215  1  0  0  0  0 
 96216  1  0  0  0  0 
 96217  1  0  0  0  0 
M  END
> <cdk:Title>
9898639

> <cdk:Remark>
null

> <PUBCHEM_COMPOUND_CID>
9898639

> <PUBCHEM_COMPOUND_CANONICALIZED>
1

> <PUBCHEM_CACTVS_COMPLEXITY>
1850

> <PUBCHEM_CACTVS_HBOND_ACCEPTOR>
36

> <PUBCHEM_CACTVS_HBOND_DONOR>
24

> <PUBCHEM_CACTVS_ROTATABLE_BOND>
19

> <PUBCHEM_CACTVS_SUBSKEYS>
AAADcfB//gAAAAAAAAAAAAAAAAAAAAAAAAA0aNEiQAAAAAAAAAAAHgAQCAAADHzxgAcCCALABgAAAAAAAAAAAAAAAAAAAIAIAAATEAIAwAAnQAAHEAAXAAHw8C0MAAAAAAAAAAAAgAAUCACgAAAAAAAAAA==

> <PUBCHEM_IUPAC_OPENEYE_NAME>
(2R,3R,4R,5R)-2-[(1S,2S,3R,4S,6R)-4,6-diamino-3-[(2R,3R,6S)-3-amino-6-(1-aminoethyl)tetrahydropyran-2-yl]oxy-2-hydroxy-cyclohexoxy]-5-methyl-4-(methylamino)tetrahydropyran-3,5-diol;(2R,3R,4R,5R)-2-[(1S,2S,3R,4S,6R)-4,6-diamino-3-[(2R,3R,6S)-3-amino-6-(aminomethyl)tetrahydropyran-2-yl]oxy-2-hydroxy-cyclohexoxy]-5-methyl-4-(methylamino)tetrahydropyran-3,5-diol;(2R,3R,4R,5R)-2-[(1S,2S,3R,4S,6R)-4,6-diamino-3-[(2R,3R,6S)-3-amino-6-[1-(methylamino)ethyl]tetrahydropyran-2-yl]oxy-2-hydroxy-cyclohexoxy]-5-methyl-4-(methylamino)tetrahydropyran-3,5-diol

> <PUBCHEM_IUPAC_CAS_NAME>
(2R,3R,4R,5R)-2-[(1S,2S,3R,4S,6R)-4,6-diamino-3-[[(2R,3R,6S)-3-amino-6-(1-aminoethyl)-2-oxanyl]oxy]-2-hydroxycyclohexyl]oxy-5-methyl-4-(methylamino)oxane-3,5-diol;(2R,3R,4R,5R)-2-[(1S,2S,3R,4S,6R)-4,6-diamino-3-[[(2R,3R,6S)-3-amino-6-(aminomethyl)-2-oxanyl]oxy]-2-hydroxycyclohexyl]oxy-5-methyl-4-(methylamino)oxane-3,5-diol;(2R,3R,4R,5R)-2-[(1S,2S,3R,4S,6R)-4,6-diamino-3-[[(2R,3R,6S)-3-amino-6-[1-(methylamino)ethyl]-2-oxanyl]oxy]-2-hydroxycyclohexyl]oxy-5-methyl-4-(methylamino)oxane-3,5-diol

> <PUBCHEM_IUPAC_NAME>
(2R,3R,4R,5R)-2-[(1S,2S,3R,4S,6R)-4,6-diamino-3-[(2R,3R,6S)-3-amino-6-(1-aminoethyl)oxan-2-yl]oxy-2-hydroxycyclohexyl]oxy-5-methyl-4-(methylamino)oxane-3,5-diol;(2R,3R,4R,5R)-2-[(1S,2S,3R,4S,6R)-4,6-diamino-3-[(2R,3R,6S)-3-amino-6-(aminomethyl)oxan-2-yl]oxy-2-hydroxycyclohexyl]oxy-5-methyl-4-(methylamino)oxane-3,5-diol;(2R,3R,4R,5R)-2-[(1S,2S,3R,4S,6R)-4,6-diamino-3-[(2R,3R,6S)-3-amino-6-[1-(methylamino)ethyl]oxan-2-yl]oxy-2-hydroxycyclohexyl]oxy-5-methyl-4-(methylamino)oxane-3,5-diol

> <PUBCHEM_IUPAC_SYSTEMATIC_NAME>
(2R,3R,4R,5R)-2-[(1S,2S,3R,4S,6R)-3-[(2R,3R,6S)-6-(aminomethyl)-3-azanyl-oxan-2-yl]oxy-4,6-bis(azanyl)-2-oxidanyl-cyclohexyl]oxy-5-methyl-4-(methylamino)oxane-3,5-diol;(2R,3R,4R,5R)-2-[(1S,2S,3R,4S,6R)-4,6-bis(azanyl)-3-[(2R,3R,6S)-3-azanyl-6-(1-azanylethyl)oxan-2-yl]oxy-2-oxidanyl-cyclohexyl]oxy-5-methyl-4-(methylamino)oxane-3,5-diol;(2R,3R,4R,5R)-2-[(1S,2S,3R,4S,6R)-4,6-bis(azanyl)-3-[(2R,3R,6S)-3-azanyl-6-[1-(methylamino)ethyl]oxan-2-yl]oxy-2-oxidanyl-cyclohexyl]oxy-5-methyl-4-(methylamino)oxane-3,5-diol

> <PUBCHEM_IUPAC_TRADITIONAL_NAME>
(2R,3R,4R,5R)-2-[(1S,2S,3R,4S,6R)-4,6-diamino-3-[(2R,3R,6S)-3-amino-6-(1-aminoethyl)tetrahydropyran-2-yl]oxy-2-hydroxy-cyclohexoxy]-5-methyl-4-(methylamino)tetrahydropyran-3,5-diol;(2R,3R,4R,5R)-2-[(1S,2S,3R,4S,6R)-4,6-diamino-3-[(2R,3R,6S)-3-amino-6-(aminomethyl)tetrahydropyran-2-yl]oxy-2-hydroxy-cyclohexoxy]-5-methyl-4-(methylamino)tetrahydropyran-3,5-diol;(2R,3R,4R,5R)-2-[(1S,2S,3R,4S,6R)-4,6-diamino-3-[(2R,3R,6S)-3-amino-6-[1-(methylamino)ethyl]tetrahydropyran-2-yl]oxy-2-hydroxy-cyclohexoxy]-5-methyl-4-(methylamino)tetrahydropyran-3,5-diol

> <PUBCHEM_IUPAC_INCHI>
InChI=1S/C21H43N5O7.C20H41N5O7.C19H39N5O7/c1-9(25-3)13-6-5-10(22)19(31-13)32-16-11(23)7-12(24)17(14(16)27)33-20-15(28)18(26-4)21(2,29)8-30-20;1-8(21)12-5-4-9(22)18(30-12)31-15-10(23)6-11(24)16(13(15)26)32-19-14(27)17(25-3)20(2,28)7-29-19;1-19(27)7-28-18(13(26)16(19)24-2)31-15-11(23)5-10(22)14(12(15)25)30-17-9(21)4-3-8(6-20)29-17/h9-20,25-29H,5-8,22-24H2,1-4H3;8-19,25-28H,4-7,21-24H2,1-3H3;8-18,24-27H,3-7,20-23H2,1-2H3/t9?,10-,11+,12-,13+,14+,15-,16-,17+,18-,19-,20-,21+;8?,9-,10+,11-,12+,13+,14-,15-,16+,17-,18-,19-,20+;8-,9+,10-,11+,12-,13+,14+,15-,16+,17+,18+,19-/m110/s1

> <PUBCHEM_IUPAC_INCHIKEY>
NPEFREDMMVQEPL-RWPARATISA-N

> <PUBCHEM_EXACT_MASS>
1389.901796

> <PUBCHEM_MOLECULAR_FORMULA>
C60H123N15O21

> <PUBCHEM_MOLECULAR_WEIGHT>
1390.70652

> <PUBCHEM_OPENEYE_CAN_SMILES>
CC(C1CCC(C(O1)OC2C(CC(C(C2O)OC3C(C(C(CO3)(C)O)NC)O)N)N)N)N.CC(C1CCC(C(O1)OC2C(CC(C(C2O)OC3C(C(C(CO3)(C)O)NC)O)N)N)N)NC.CC1(COC(C(C1NC)O)OC2C(CC(C(C2O)OC3C(CCC(O3)CN)N)N)N)O

> <PUBCHEM_OPENEYE_ISO_SMILES>
CC([C@@H]1CC[C@H]([C@H](O1)O[C@@H]2[C@H](C[C@H]([C@@H]([C@H]2O)O[C@@H]3[C@@H]([C@H]([C@@](CO3)(C)O)NC)O)N)N)N)N.CC([C@@H]1CC[C@H]([C@H](O1)O[C@@H]2[C@H](C[C@H]([C@@H]([C@H]2O)O[C@@H]3[C@@H]([C@H]([C@@](CO3)(C)O)NC)O)N)N)N)NC.C[C@@]1(CO[C@@H]([C@@H]([C@H]1NC)O)O[C@H]2[C@@H](C[C@@H]([C@H]([C@@H]2O)O[C@@H]3[C@@H](CC[C@H](O3)CN)N)N)N)O

> <PUBCHEM_CACTVS_TPSA>
627

> <PUBCHEM_MONOISOTOPIC_WEIGHT>
1389.901796

> <PUBCHEM_TOTAL_CHARGE>
0

> <PUBCHEM_HEAVY_ATOM_COUNT>
96

> <PUBCHEM_ATOM_DEF_STEREO_COUNT>
36

> <PUBCHEM_ATOM_UDEF_STEREO_COUNT>
2

> <PUBCHEM_BOND_DEF_STEREO_COUNT>
0

> <PUBCHEM_BOND_UDEF_STEREO_COUNT>
0

> <PUBCHEM_ISOTOPIC_ATOM_COUNT>
0

> <PUBCHEM_COMPONENT_COUNT>
3

> <PUBCHEM_CACTVS_TAUTO_COUNT>
1

> <PUBCHEM_COORDINATE_TYPE>
1
5
255

> <PUBCHEM_BONDANNOTATIONS>
37  1  6
55  1  6
50  11  6
58  16  6
61  17  6
64  18  5
65  19  5
39  2  6
56  2  6
67  20  5
69  21  6
42  22  5
43  23  5
45  24  5
46  25  5
52  26  6
53  27  6
60  28  5
62  29  5
38  3  6
57  3  6
66  30  6
68  31  6
71  32  6
77  33  5
40  4  6
63  4  6
47  5  5
59  5  5
48  6  5
70  6  5
41  7  5
72  83  5
78  89  5
44  8  5
83  166  3
84  90  6
89  181  3

> <DRUG_ID>
w248

> <DRUG_NAME>
Gentamicin

$$$$
49800036
  CDK     0927151942
null
 54 55  0  0  0  0  0  0  0  0999 V2000
    2.8660   -1.5600    0.0000 I   0  0  0  0  0  0  0  0  0  0  0  0
    6.3301   -1.5600    0.0000 I   0  0  0  0  0  0  0  0  0  0  0  0
    4.5981   -4.5600    0.0000 I   0  0  0  0  0  0  0  0  0  0  0  0
    4.5981    2.4400    0.0000 O   0  0  0  0  0  0  0  0  0  0  0  0
    7.1962    0.9400    0.0000 O   0  0  0  0  0  0  0  0  0  0  0  0
    7.1962    2.9400    0.0000 O   0  0  0  0  0  0  0  0  0  0  0  0
    3.7320    0.9400    0.0000 O   0  0  0  0  0  0  0  0  0  0  0  0
    4.5981    4.4400    0.0000 O   0  0  0  0  0  0  0  0  0  0  0  0
    3.7320   -0.0600    0.0000 O   0  0  0  0  0  0  0  0  0  0  0  0
    3.7320   -5.0600    0.0000 O   0  0  0  0  0  0  0  0  0  0  0  0
    5.4641   -5.0600    0.0000 O   0  0  0  0  0  0  0  0  0  0  0  0
    5.4641   -0.0600    0.0000 N   0  0  0  0  0  0  0  0  0  0  0  0
    2.8660   -3.5600    0.0000 N   0  0  0  0  0  0  0  0  0  0  0  0
    6.3301   -3.5600    0.0000 N   0  0  0  0  0  0  0  0  0  0  0  0
    5.4641    0.9400    0.0000 C   0  0  2  0  0  0  0  0  0  0  0  0
    6.3301    1.4400    0.0000 C   0  0  2  0  0  0  0  0  0  0  0  0
    6.3301    2.4400    0.0000 C   0  0  1  0  0  0  0  0  0  0  0  0
    5.4641    2.9400    0.0000 C   0  0  1  0  0  0  0  0  0  0  0  0
    4.5981    1.4400    0.0000 C   0  0  2  0  0  0  0  0  0  0  0  0
    5.4641    3.9400    0.0000 C   0  0  0  0  0  0  0  0  0  0  0  0
    4.5981   -0.5600    0.0000 C   0  0  0  0  0  0  0  0  0  0  0  0
    4.5981   -1.5600    0.0000 C   0  0  0  0  0  0  0  0  0  0  0  0
    3.7320   -2.0600    0.0000 C   0  0  0  0  0  0  0  0  0  0  0  0
    5.4641   -2.0600    0.0000 C   0  0  0  0  0  0  0  0  0  0  0  0
    3.7320   -3.0600    0.0000 C   0  0  0  0  0  0  0  0  0  0  0  0
    5.4641   -3.0600    0.0000 C   0  0  0  0  0  0  0  0  0  0  0  0
    4.5981   -3.5600    0.0000 C   0  0  0  0  0  0  0  0  0  0  0  0
    2.0000   -3.0600    0.0000 C   0  0  0  0  0  0  0  0  0  0  0  0
    2.8660   -4.5600    0.0000 C   0  0  0  0  0  0  0  0  0  0  0  0
    6.3301   -4.5600    0.0000 C   0  0  0  0  0  0  0  0  0  0  0  0
    2.0000   -5.0600    0.0000 C   0  0  0  0  0  0  0  0  0  0  0  0
    7.1962   -5.0600    0.0000 C   0  0  0  0  0  0  0  0  0  0  0  0
    6.0010    0.6300    0.0000 H   0  0  0  0  0  0  0  0  0  0  0  0
    6.8671    1.7500    0.0000 H   0  0  0  0  0  0  0  0  0  0  0  0
    6.8671    2.1300    0.0000 H   0  0  0  0  0  0  0  0  0  0  0  0
    4.9272    3.2500    0.0000 H   0  0  0  0  0  0  0  0  0  0  0  0
    4.0611    1.7500    0.0000 H   0  0  0  0  0  0  0  0  0  0  0  0
    6.0010   -0.3700    0.0000 H   0  0  0  0  0  0  0  0  0  0  0  0
    6.0747    3.8323    0.0000 H   0  0  0  0  0  0  0  0  0  0  0  0
    5.6762    4.5226    0.0000 H   0  0  0  0  0  0  0  0  0  0  0  0
    7.7331    1.2500    0.0000 H   0  0  0  0  0  0  0  0  0  0  0  0
    7.1962    3.5600    0.0000 H   0  0  0  0  0  0  0  0  0  0  0  0
    3.1951    1.2500    0.0000 H   0  0  0  0  0  0  0  0  0  0  0  0
    4.5981    5.0600    0.0000 H   0  0  0  0  0  0  0  0  0  0  0  0
    6.8671   -3.2500    0.0000 H   0  0  0  0  0  0  0  0  0  0  0  0
    2.3100   -2.5231    0.0000 H   0  0  0  0  0  0  0  0  0  0  0  0
    1.4631   -2.7500    0.0000 H   0  0  0  0  0  0  0  0  0  0  0  0
    1.6900   -3.5969    0.0000 H   0  0  0  0  0  0  0  0  0  0  0  0
    1.6900   -4.5231    0.0000 H   0  0  0  0  0  0  0  0  0  0  0  0
    1.4631   -5.3700    0.0000 H   0  0  0  0  0  0  0  0  0  0  0  0
    2.3100   -5.5969    0.0000 H   0  0  0  0  0  0  0  0  0  0  0  0
    6.8862   -5.5969    0.0000 H   0  0  0  0  0  0  0  0  0  0  0  0
    7.7331   -5.3700    0.0000 H   0  0  0  0  0  0  0  0  0  0  0  0
    7.5062   -4.5231    0.0000 H   0  0  0  0  0  0  0  0  0  0  0  0
  1 23  1  0  0  0  0 
  2 24  1  0  0  0  0 
  3 27  1  0  0  0  0 
  4 18  1  0  0  0  0 
  4 19  1  0  0  0  0 
 16  5  1  6  0  0  0 
  5 41  1  0  0  0  0 
 17  6  1  1  0  0  0 
  6 42  1  0  0  0  0 
 19  7  1  1  0  0  0 
  7 43  1  0  0  0  0 
  8 20  1  0  0  0  0 
  8 44  1  0  0  0  0 
  9 21  2  0  0  0  0 
 10 29  2  0  0  0  0 
 11 30  2  0  0  0  0 
 15 12  1  1  0  0  0 
 12 21  1  0  0  0  0 
 12 38  1  0  0  0  0 
 13 25  1  0  0  0  0 
 13 28  1  0  0  0  0 
 13 29  1  0  0  0  0 
 14 26  1  0  0  0  0 
 14 30  1  0  0  0  0 
 14 45  1  0  0  0  0 
 15 16  1  0  0  0  0 
 15 19  1  0  0  0  0 
 15 33  1  0  0  0  0 
 16 17  1  0  0  0  0 
 16 34  1  0  0  0  0 
 17 18  1  0  0  0  0 
 17 35  1  0  0  0  0 
 18 20  1  6  0  0  0 
 18 36  1  0  0  0  0 
 19 37  1  0  0  0  0 
 20 39  1  0  0  0  0 
 20 40  1  0  0  0  0 
 21 22  1  0  0  0  0 
 22 23  1  0  0  0  0 
 22 24  2  0  0  0  0 
 23 25  2  0  0  0  0 
 24 26  1  0  0  0  0 
 25 27  1  0  0  0  0 
 26 27  2  0  0  0  0 
 28 46  1  0  0  0  0 
 28 47  1  0  0  0  0 
 28 48  1  0  0  0  0 
 29 31  1  0  0  0  0 
 30 32  1  0  0  0  0 
 31 49  1  0  0  0  0 
 31 50  1  0  0  0  0 
 31 51  1  0  0  0  0 
 32 52  1  0  0  0  0 
 32 53  1  0  0  0  0 
 32 54  1  0  0  0  0 
M  END
> <cdk:Title>
49800036

> <cdk:Remark>
null

> <PUBCHEM_COMPOUND_CID>
49800036

> <PUBCHEM_COMPOUND_CANONICALIZED>
1

> <PUBCHEM_CACTVS_COMPLEXITY>
719

> <PUBCHEM_CACTVS_HBOND_ACCEPTOR>
8

> <PUBCHEM_CACTVS_HBOND_DONOR>
6

> <PUBCHEM_CACTVS_ROTATABLE_BOND>
5

> <PUBCHEM_CACTVS_SUBSKEYS>
AAADceB7PAAAAwAAAAAAAAAAAAAAAAAAAAA0QAAAAAAAAAABAAAAHgAwCAAADDzzmAcCyIPABgCIAgVQUACCAAAlAAAAiIEIRMgbMDLA1NGHYQhnlgDfyQf8+AeOAAAAQAQAAAAAAACACAAAAAAAAAAAAA==

> <PUBCHEM_IUPAC_OPENEYE_NAME>
3-acetamido-5-[acetyl(methyl)amino]-2,4,6-triiodo-N-[(2S,3R,4R,5S,6R)-2,4,5-trihydroxy-6-(hydroxymethyl)tetrahydropyran-3-yl]benzamide

> <PUBCHEM_IUPAC_CAS_NAME>
3-acetamido-5-[acetyl(methyl)amino]-2,4,6-triiodo-N-[(2S,3R,4R,5S,6R)-2,4,5-trihydroxy-6-(hydroxymethyl)-3-oxanyl]benzamide

> <PUBCHEM_IUPAC_NAME>
3-acetamido-5-[acetyl(methyl)amino]-2,4,6-triiodo-N-[(2S,3R,4R,5S,6R)-2,4,5-trihydroxy-6-(hydroxymethyl)oxan-3-yl]benzamide

> <PUBCHEM_IUPAC_SYSTEMATIC_NAME>
3-acetamido-5-[ethanoyl(methyl)amino]-N-[(2S,3R,4R,5S,6R)-6-(hydroxymethyl)-2,4,5-tris(oxidanyl)oxan-3-yl]-2,4,6-tris(iodanyl)benzamide

> <PUBCHEM_IUPAC_TRADITIONAL_NAME>
3-acetamido-5-[acetyl(methyl)amino]-2,4,6-triiodo-N-[(2S,3R,4R,5S,6R)-2,4,5-trihydroxy-6-methylol-tetrahydropyran-3-yl]benzamide

> <PUBCHEM_IUPAC_INCHI>
InChI=1S/C18H22I3N3O8/c1-5(26)22-12-9(19)8(10(20)14(11(12)21)24(3)6(2)27)17(30)23-13-16(29)15(28)7(4-25)32-18(13)31/h7,13,15-16,18,25,28-29,31H,4H2,1-3H3,(H,22,26)(H,23,30)/t7-,13-,15-,16-,18+/m1/s1

> <PUBCHEM_IUPAC_INCHIKEY>
BAQCROVBDNBEEB-KSDLJXBFSA-N

> <PUBCHEM_XLOGP3_AA>
-0.4

> <PUBCHEM_EXACT_MASS>
788.854109

> <PUBCHEM_MOLECULAR_FORMULA>
C18H22I3N3O8

> <PUBCHEM_MOLECULAR_WEIGHT>
789.09599

> <PUBCHEM_OPENEYE_CAN_SMILES>
CC(=O)NC1=C(C(=C(C(=C1I)C(=O)NC2C(C(C(OC2O)CO)O)O)I)N(C)C(=O)C)I

> <PUBCHEM_OPENEYE_ISO_SMILES>
CC(=O)NC1=C(C(=C(C(=C1I)C(=O)N[C@@H]2[C@H]([C@@H]([C@H](O[C@@H]2O)CO)O)O)I)N(C)C(=O)C)I

> <PUBCHEM_CACTVS_TPSA>
169

> <PUBCHEM_MONOISOTOPIC_WEIGHT>
788.854109

> <PUBCHEM_TOTAL_CHARGE>
0

> <PUBCHEM_HEAVY_ATOM_COUNT>
32

> <PUBCHEM_ATOM_DEF_STEREO_COUNT>
5

> <PUBCHEM_ATOM_UDEF_STEREO_COUNT>
0

> <PUBCHEM_BOND_DEF_STEREO_COUNT>
0

> <PUBCHEM_BOND_UDEF_STEREO_COUNT>
0

> <PUBCHEM_ISOTOPIC_ATOM_COUNT>
0

> <PUBCHEM_COMPONENT_COUNT>
1

> <PUBCHEM_CACTVS_TAUTO_COUNT>
6

> <PUBCHEM_COORDINATE_TYPE>
1
5
255

> <PUBCHEM_BONDANNOTATIONS>
15  12  5
18  20  6
22  23  8
22  24  8
23  25  8
24  26  8
25  27  8
26  27  8
16  5  6
17  6  5
19  7  5

> <DRUG_ID>
w249

> <DRUG_NAME>
Metrizamide

$$$$
4746
  CDK     0927151942
null
 55 57  0  0  0  0  0  0  0  0999 V2000
    7.1962   -1.0000    0.0000 N   0  0  0  0  0  0  0  0  0  0  0  0
    4.5981   -0.5000    0.0000 C   0  0  0  0  0  0  0  0  0  0  0  0
    3.7320   -1.0000    0.0000 C   0  0  0  0  0  0  0  0  0  0  0  0
    4.5981    0.5000    0.0000 C   0  0  0  0  0  0  0  0  0  0  0  0
    5.4641   -1.0000    0.0000 C   0  0  0  0  0  0  0  0  0  0  0  0
    5.4641    1.0000    0.0000 C   0  0  0  0  0  0  0  0  0  0  0  0
    3.7320    1.0000    0.0000 C   0  0  0  0  0  0  0  0  0  0  0  0
    2.8660   -0.5000    0.0000 C   0  0  0  0  0  0  0  0  0  0  0  0
    3.7320   -2.0000    0.0000 C   0  0  0  0  0  0  0  0  0  0  0  0
    6.3301   -0.5000    0.0000 C   0  0  3  0  0  0  0  0  0  0  0  0
    5.4641    2.0000    0.0000 C   0  0  0  0  0  0  0  0  0  0  0  0
    3.7320    2.0000    0.0000 C   0  0  0  0  0  0  0  0  0  0  0  0
    2.0000   -1.0000    0.0000 C   0  0  0  0  0  0  0  0  0  0  0  0
    2.8660   -2.5000    0.0000 C   0  0  0  0  0  0  0  0  0  0  0  0
    2.0000   -2.0000    0.0000 C   0  0  0  0  0  0  0  0  0  0  0  0
    4.5981    2.5000    0.0000 C   0  0  0  0  0  0  0  0  0  0  0  0
    6.3301    0.5000    0.0000 C   0  0  0  0  0  0  0  0  0  0  0  0
    7.1962    1.0000    0.0000 C   0  0  0  0  0  0  0  0  0  0  0  0
    8.0622   -0.5000    0.0000 C   0  0  0  0  0  0  0  0  0  0  0  0
    8.0622    0.5000    0.0000 C   0  0  0  0  0  0  0  0  0  0  0  0
    4.5981   -1.1200    0.0000 H   0  0  0  0  0  0  0  0  0  0  0  0
    3.7320   -0.3800    0.0000 H   0  0  0  0  0  0  0  0  0  0  0  0
    5.1350    0.1900    0.0000 H   0  0  0  0  0  0  0  0  0  0  0  0
    5.0656   -1.4750    0.0000 H   0  0  0  0  0  0  0  0  0  0  0  0
    5.8626   -1.4750    0.0000 H   0  0  0  0  0  0  0  0  0  0  0  0
    5.6762    0.4174    0.0000 H   0  0  0  0  0  0  0  0  0  0  0  0
    6.0747    1.1077    0.0000 H   0  0  0  0  0  0  0  0  0  0  0  0
    3.1215    1.1077    0.0000 H   0  0  0  0  0  0  0  0  0  0  0  0
    3.5200    0.4174    0.0000 H   0  0  0  0  0  0  0  0  0  0  0  0
    3.9441   -2.5826    0.0000 H   0  0  0  0  0  0  0  0  0  0  0  0
    4.3426   -1.8923    0.0000 H   0  0  0  0  0  0  0  0  0  0  0  0
    3.2646   -0.0251    0.0000 H   0  0  0  0  0  0  0  0  0  0  0  0
    2.4675   -0.0251    0.0000 H   0  0  0  0  0  0  0  0  0  0  0  0
    6.3301   -1.1200    0.0000 H   0  0  0  0  0  0  0  0  0  0  0  0
    2.4675   -2.9750    0.0000 H   0  0  0  0  0  0  0  0  0  0  0  0
    3.2646   -2.9750    0.0000 H   0  0  0  0  0  0  0  0  0  0  0  0
    1.7880   -0.4174    0.0000 H   0  0  0  0  0  0  0  0  0  0  0  0
    1.3894   -1.1077    0.0000 H   0  0  0  0  0  0  0  0  0  0  0  0
    3.5200    2.5826    0.0000 H   0  0  0  0  0  0  0  0  0  0  0  0
    3.1215    1.8923    0.0000 H   0  0  0  0  0  0  0  0  0  0  0  0
    6.0747    1.8923    0.0000 H   0  0  0  0  0  0  0  0  0  0  0  0
    5.6762    2.5826    0.0000 H   0  0  0  0  0  0  0  0  0  0  0  0
    1.3894   -1.8923    0.0000 H   0  0  0  0  0  0  0  0  0  0  0  0
    1.7880   -2.5826    0.0000 H   0  0  0  0  0  0  0  0  0  0  0  0
    4.9966    2.9750    0.0000 H   0  0  0  0  0  0  0  0  0  0  0  0
    4.1996    2.9750    0.0000 H   0  0  0  0  0  0  0  0  0  0  0  0
    6.1181    1.0826    0.0000 H   0  0  0  0  0  0  0  0  0  0  0  0
    5.7196    0.3923    0.0000 H   0  0  0  0  0  0  0  0  0  0  0  0
    7.1962   -1.6200    0.0000 H   0  0  0  0  0  0  0  0  0  0  0  0
    7.5947    1.4750    0.0000 H   0  0  0  0  0  0  0  0  0  0  0  0
    6.7976    1.4750    0.0000 H   0  0  0  0  0  0  0  0  0  0  0  0
    8.2742   -1.0826    0.0000 H   0  0  0  0  0  0  0  0  0  0  0  0
    8.6728   -0.3923    0.0000 H   0  0  0  0  0  0  0  0  0  0  0  0
    8.6728    0.3923    0.0000 H   0  0  0  0  0  0  0  0  0  0  0  0
    8.2742    1.0826    0.0000 H   0  0  0  0  0  0  0  0  0  0  0  0
  1 10  1  0  0  0  0 
  1 19  1  0  0  0  0 
  1 49  1  0  0  0  0 
  2  3  1  0  0  0  0 
  2  4  1  0  0  0  0 
  2  5  1  0  0  0  0 
  2 21  1  0  0  0  0 
  3  8  1  0  0  0  0 
  3  9  1  0  0  0  0 
  3 22  1  0  0  0  0 
  4  6  1  0  0  0  0 
  4  7  1  0  0  0  0 
  4 23  1  0  0  0  0 
  5 10  1  0  0  0  0 
  5 24  1  0  0  0  0 
  5 25  1  0  0  0  0 
  6 11  1  0  0  0  0 
  6 26  1  0  0  0  0 
  6 27  1  0  0  0  0 
  7 12  1  0  0  0  0 
  7 28  1  0  0  0  0 
  7 29  1  0  0  0  0 
  8 13  1  0  0  0  0 
  8 32  1  0  0  0  0 
  8 33  1  0  0  0  0 
  9 14  1  0  0  0  0 
  9 30  1  0  0  0  0 
  9 31  1  0  0  0  0 
 10 17  1  0  0  0  0 
 10 34  1  0  0  0  0 
 11 16  1  0  0  0  0 
 11 41  1  0  0  0  0 
 11 42  1  0  0  0  0 
 12 16  1  0  0  0  0 
 12 39  1  0  0  0  0 
 12 40  1  0  0  0  0 
 13 15  1  0  0  0  0 
 13 37  1  0  0  0  0 
 13 38  1  0  0  0  0 
 14 15  1  0  0  0  0 
 14 35  1  0  0  0  0 
 14 36  1  0  0  0  0 
 15 43  1  0  0  0  0 
 15 44  1  0  0  0  0 
 16 45  1  0  0  0  0 
 16 46  1  0  0  0  0 
 17 18  1  0  0  0  0 
 17 47  1  0  0  0  0 
 17 48  1  0  0  0  0 
 18 20  1  0  0  0  0 
 18 50  1  0  0  0  0 
 18 51  1  0  0  0  0 
 19 20  1  0  0  0  0 
 19 52  1  0  0  0  0 
 19 53  1  0  0  0  0 
 20 54  1  0  0  0  0 
 20 55  1  0  0  0  0 
M  END
> <cdk:Title>
4746

> <cdk:Remark>
null

> <PUBCHEM_COMPOUND_CID>
4746

> <PUBCHEM_COMPOUND_CANONICALIZED>
1

> <PUBCHEM_CACTVS_COMPLEXITY>
245

> <PUBCHEM_CACTVS_HBOND_ACCEPTOR>
1

> <PUBCHEM_CACTVS_HBOND_DONOR>
1

> <PUBCHEM_CACTVS_ROTATABLE_BOND>
4

> <PUBCHEM_CACTVS_SUBSKEYS>
AAADcfB6AAAAAAAAAAAAAAAAAAAAAAAAAAA8YIAAAAAAAAAAAAAAHAAQAAAADSjBAAQAAALAAAAAAAAAAAAAAAAAAAAAAIAIAAAAAAIAgAAEAAAAEACAAAEQgMAOgAAAAAAAAAAAAAAAAAAAAAAAAAAAAA==

> <PUBCHEM_IUPAC_OPENEYE_NAME>
2-(2,2-dicyclohexylethyl)piperidine

> <PUBCHEM_IUPAC_CAS_NAME>
2-(2,2-dicyclohexylethyl)piperidine

> <PUBCHEM_IUPAC_NAME>
2-(2,2-dicyclohexylethyl)piperidine

> <PUBCHEM_IUPAC_SYSTEMATIC_NAME>
2-(2,2-dicyclohexylethyl)piperidine

> <PUBCHEM_IUPAC_TRADITIONAL_NAME>
2-(2,2-dicyclohexylethyl)piperidine

> <PUBCHEM_IUPAC_INCHI>
InChI=1S/C19H35N/c1-3-9-16(10-4-1)19(17-11-5-2-6-12-17)15-18-13-7-8-14-20-18/h16-20H,1-15H2

> <PUBCHEM_IUPAC_INCHIKEY>
CYXKNKQEMFBLER-UHFFFAOYSA-N

> <PUBCHEM_XLOGP3_AA>
6.8

> <PUBCHEM_EXACT_MASS>
277.27695

> <PUBCHEM_MOLECULAR_FORMULA>
C19H35N

> <PUBCHEM_MOLECULAR_WEIGHT>
277.4879

> <PUBCHEM_OPENEYE_CAN_SMILES>
C1CCC(CC1)C(CC2CCCCN2)C3CCCCC3

> <PUBCHEM_OPENEYE_ISO_SMILES>
C1CCC(CC1)C(CC2CCCCN2)C3CCCCC3

> <PUBCHEM_CACTVS_TPSA>
12

> <PUBCHEM_MONOISOTOPIC_WEIGHT>
277.27695

> <PUBCHEM_TOTAL_CHARGE>
0

> <PUBCHEM_HEAVY_ATOM_COUNT>
20

> <PUBCHEM_ATOM_DEF_STEREO_COUNT>
0

> <PUBCHEM_ATOM_UDEF_STEREO_COUNT>
1

> <PUBCHEM_BOND_DEF_STEREO_COUNT>
0

> <PUBCHEM_BOND_UDEF_STEREO_COUNT>
0

> <PUBCHEM_ISOTOPIC_ATOM_COUNT>
0

> <PUBCHEM_COMPONENT_COUNT>
1

> <PUBCHEM_CACTVS_TAUTO_COUNT>
1

> <PUBCHEM_COORDINATE_TYPE>
1
5
255

> <PUBCHEM_BONDANNOTATIONS>
10  5  3

> <DRUG_ID>
w25

> <DRUG_NAME>
Perhexiline

$$$$
7458
  CDK     0927151942
null
 51 51  0  0  0  0  0  0  0  0999 V2000
    2.8660   -6.5000    0.0000 I   0  0  0  0  0  0  0  0  0  0  0  0
    7.1962    5.0000    0.0000 O   0  0  0  0  0  0  0  0  0  0  0  0
    8.0622    3.5000    0.0000 O   0  0  0  0  0  0  0  0  0  0  0  0
    3.7320   -1.0000    0.0000 C   0  0  0  0  0  0  0  0  0  0  0  0
    3.7320   -2.0000    0.0000 C   0  0  0  0  0  0  0  0  0  0  0  0
    4.5981   -0.5000    0.0000 C   0  0  0  0  0  0  0  0  0  0  0  0
    2.8660   -2.5000    0.0000 C   0  0  3  0  0  0  0  0  0  0  0  0
    4.5981    0.5000    0.0000 C   0  0  0  0  0  0  0  0  0  0  0  0
    5.4641    1.0000    0.0000 C   0  0  0  0  0  0  0  0  0  0  0  0
    5.4641    2.0000    0.0000 C   0  0  0  0  0  0  0  0  0  0  0  0
    2.8660   -3.5000    0.0000 C   0  0  0  0  0  0  0  0  0  0  0  0
    6.3301    2.5000    0.0000 C   0  0  0  0  0  0  0  0  0  0  0  0
    2.0000   -2.0000    0.0000 C   0  0  0  0  0  0  0  0  0  0  0  0
    6.3301    3.5000    0.0000 C   0  0  0  0  0  0  0  0  0  0  0  0
    2.0000   -4.0000    0.0000 C   0  0  0  0  0  0  0  0  0  0  0  0
    3.7320   -4.0000    0.0000 C   0  0  0  0  0  0  0  0  0  0  0  0
    2.0000   -5.0000    0.0000 C   0  0  0  0  0  0  0  0  0  0  0  0
    3.7320   -5.0000    0.0000 C   0  0  0  0  0  0  0  0  0  0  0  0
    7.1962    4.0000    0.0000 C   0  0  0  0  0  0  0  0  0  0  0  0
    2.8660   -5.5000    0.0000 C   0  0  0  0  0  0  0  0  0  0  0  0
    8.0622    5.5000    0.0000 C   0  0  0  0  0  0  0  0  0  0  0  0
    8.0622    6.5000    0.0000 C   0  0  0  0  0  0  0  0  0  0  0  0
    3.5200   -0.4174    0.0000 H   0  0  0  0  0  0  0  0  0  0  0  0
    3.1215   -1.1077    0.0000 H   0  0  0  0  0  0  0  0  0  0  0  0
    3.9441   -2.5826    0.0000 H   0  0  0  0  0  0  0  0  0  0  0  0
    4.3426   -1.8923    0.0000 H   0  0  0  0  0  0  0  0  0  0  0  0
    4.8101   -1.0826    0.0000 H   0  0  0  0  0  0  0  0  0  0  0  0
    5.2087   -0.3923    0.0000 H   0  0  0  0  0  0  0  0  0  0  0  0
    2.8660   -1.8800    0.0000 H   0  0  0  0  0  0  0  0  0  0  0  0
    4.3860    1.0826    0.0000 H   0  0  0  0  0  0  0  0  0  0  0  0
    3.9875    0.3923    0.0000 H   0  0  0  0  0  0  0  0  0  0  0  0
    5.6762    0.4174    0.0000 H   0  0  0  0  0  0  0  0  0  0  0  0
    6.0747    1.1077    0.0000 H   0  0  0  0  0  0  0  0  0  0  0  0
    5.2520    2.5826    0.0000 H   0  0  0  0  0  0  0  0  0  0  0  0
    4.8535    1.8923    0.0000 H   0  0  0  0  0  0  0  0  0  0  0  0
    6.5422    1.9174    0.0000 H   0  0  0  0  0  0  0  0  0  0  0  0
    6.9407    2.6077    0.0000 H   0  0  0  0  0  0  0  0  0  0  0  0
    2.3100   -1.4631    0.0000 H   0  0  0  0  0  0  0  0  0  0  0  0
    1.4631   -1.6900    0.0000 H   0  0  0  0  0  0  0  0  0  0  0  0
    1.6900   -2.5369    0.0000 H   0  0  0  0  0  0  0  0  0  0  0  0
    6.1181    4.0826    0.0000 H   0  0  0  0  0  0  0  0  0  0  0  0
    5.7196    3.3923    0.0000 H   0  0  0  0  0  0  0  0  0  0  0  0
    1.4631   -3.6900    0.0000 H   0  0  0  0  0  0  0  0  0  0  0  0
    4.2690   -3.6900    0.0000 H   0  0  0  0  0  0  0  0  0  0  0  0
    1.4631   -5.3100    0.0000 H   0  0  0  0  0  0  0  0  0  0  0  0
    4.2690   -5.3100    0.0000 H   0  0  0  0  0  0  0  0  0  0  0  0
    8.2742    4.9174    0.0000 H   0  0  0  0  0  0  0  0  0  0  0  0
    8.6728    5.6077    0.0000 H   0  0  0  0  0  0  0  0  0  0  0  0
    8.6822    6.5000    0.0000 H   0  0  0  0  0  0  0  0  0  0  0  0
    8.0622    7.1200    0.0000 H   0  0  0  0  0  0  0  0  0  0  0  0
    7.4422    6.5000    0.0000 H   0  0  0  0  0  0  0  0  0  0  0  0
  1 20  1  0  0  0  0 
  2 19  1  0  0  0  0 
  2 21  1  0  0  0  0 
  3 19  2  0  0  0  0 
  4  5  1  0  0  0  0 
  4  6  1  0  0  0  0 
  4 23  1  0  0  0  0 
  4 24  1  0  0  0  0 
  5  7  1  0  0  0  0 
  5 25  1  0  0  0  0 
  5 26  1  0  0  0  0 
  6  8  1  0  0  0  0 
  6 27  1  0  0  0  0 
  6 28  1  0  0  0  0 
  7 11  1  0  0  0  0 
  7 13  1  0  0  0  0 
  7 29  1  0  0  0  0 
  8  9  1  0  0  0  0 
  8 30  1  0  0  0  0 
  8 31  1  0  0  0  0 
  9 10  1  0  0  0  0 
  9 32  1  0  0  0  0 
  9 33  1  0  0  0  0 
 10 12  1  0  0  0  0 
 10 34  1  0  0  0  0 
 10 35  1  0  0  0  0 
 11 15  2  0  0  0  0 
 11 16  1  0  0  0  0 
 12 14  1  0  0  0  0 
 12 36  1  0  0  0  0 
 12 37  1  0  0  0  0 
 13 38  1  0  0  0  0 
 13 39  1  0  0  0  0 
 13 40  1  0  0  0  0 
 14 19  1  0  0  0  0 
 14 41  1  0  0  0  0 
 14 42  1  0  0  0  0 
 15 17  1  0  0  0  0 
 15 43  1  0  0  0  0 
 16 18  2  0  0  0  0 
 16 44  1  0  0  0  0 
 17 20  2  0  0  0  0 
 17 45  1  0  0  0  0 
 18 20  1  0  0  0  0 
 18 46  1  0  0  0  0 
 21 22  1  0  0  0  0 
 21 47  1  0  0  0  0 
 21 48  1  0  0  0  0 
 22 49  1  0  0  0  0 
 22 50  1  0  0  0  0 
 22 51  1  0  0  0  0 
M  END
> <cdk:Title>
7458

> <cdk:Remark>
null

> <PUBCHEM_COMPOUND_CID>
7458

> <PUBCHEM_COMPOUND_CANONICALIZED>
1

> <PUBCHEM_CACTVS_COMPLEXITY>
285

> <PUBCHEM_CACTVS_HBOND_ACCEPTOR>
2

> <PUBCHEM_CACTVS_HBOND_DONOR>
0

> <PUBCHEM_CACTVS_ROTATABLE_BOND>
12

> <PUBCHEM_CACTVS_SUBSKEYS>
AAADceB4MAAAAgAAAAAAAAAAAAAAAAAAAAAwAAAAAAAAAAABAAAAGgAgAAAADQCimAIyCIAABACIAiDSCAACAAAgAAAIiAEAAIgIIDKAERCCIAAkgAAIiAeIyOCOgAAAAAAAAAAAAAAAAAAAAAAAAAAAAA==

> <PUBCHEM_IUPAC_OPENEYE_NAME>
ethyl 10-(4-iodophenyl)undecanoate

> <PUBCHEM_IUPAC_CAS_NAME>
10-(4-iodophenyl)undecanoic acid ethyl ester

> <PUBCHEM_IUPAC_NAME>
ethyl 10-(4-iodophenyl)undecanoate

> <PUBCHEM_IUPAC_SYSTEMATIC_NAME>
ethyl 10-(4-iodophenyl)undecanoate

> <PUBCHEM_IUPAC_TRADITIONAL_NAME>
10-(4-iodophenyl)undecanoic acid ethyl ester

> <PUBCHEM_IUPAC_INCHI>
InChI=1S/C19H29IO2/c1-3-22-19(21)11-9-7-5-4-6-8-10-16(2)17-12-14-18(20)15-13-17/h12-16H,3-11H2,1-2H3

> <PUBCHEM_IUPAC_INCHIKEY>
LAYLQVBQIBQVLL-UHFFFAOYSA-N

> <PUBCHEM_XLOGP3_AA>
7

> <PUBCHEM_EXACT_MASS>
416.121228

> <PUBCHEM_MOLECULAR_FORMULA>
C19H29IO2

> <PUBCHEM_MOLECULAR_WEIGHT>
416.33683

> <PUBCHEM_OPENEYE_CAN_SMILES>
CCOC(=O)CCCCCCCCC(C)C1=CC=C(C=C1)I

> <PUBCHEM_OPENEYE_ISO_SMILES>
CCOC(=O)CCCCCCCCC(C)C1=CC=C(C=C1)I

> <PUBCHEM_CACTVS_TPSA>
26.3

> <PUBCHEM_MONOISOTOPIC_WEIGHT>
416.121228

> <PUBCHEM_TOTAL_CHARGE>
0

> <PUBCHEM_HEAVY_ATOM_COUNT>
22

> <PUBCHEM_ATOM_DEF_STEREO_COUNT>
0

> <PUBCHEM_ATOM_UDEF_STEREO_COUNT>
1

> <PUBCHEM_BOND_DEF_STEREO_COUNT>
0

> <PUBCHEM_BOND_UDEF_STEREO_COUNT>
0

> <PUBCHEM_ISOTOPIC_ATOM_COUNT>
0

> <PUBCHEM_COMPONENT_COUNT>
1

> <PUBCHEM_CACTVS_TAUTO_COUNT>
1

> <PUBCHEM_COORDINATE_TYPE>
1
5
255

> <PUBCHEM_BONDANNOTATIONS>
11  15  8
11  16  8
15  17  8
16  18  8
17  20  8
18  20  8
7  13  3

> <DRUG_ID>
w250

> <DRUG_NAME>
Iophendylate

$$$$
5281227
  CDK     0927151942
null
 94 95  0  0  0  0  0  0  0  0999 V2000
   13.3923    9.2500    0.0000 O   0  0  0  0  0  0  0  0  0  0  0  0
    5.5981   -9.2500    0.0000 O   0  0  0  0  0  0  0  0  0  0  0  0
    3.0000   -7.7500    0.0000 C   0  0  0  0  0  0  0  0  0  0  0  0
   10.7942    7.7500    0.0000 C   0  0  0  0  0  0  0  0  0  0  0  0
    3.0000   -8.7500    0.0000 C   0  0  0  0  0  0  0  0  0  0  0  0
   10.7942    8.7500    0.0000 C   0  0  0  0  0  0  0  0  0  0  0  0
   11.6603    7.2500    0.0000 C   0  0  0  0  0  0  0  0  0  0  0  0
    3.8660   -7.2500    0.0000 C   0  0  0  0  0  0  0  0  0  0  0  0
   11.6603    9.2500    0.0000 C   0  0  0  0  0  0  0  0  0  0  0  0
    3.8660   -9.2500    0.0000 C   0  0  0  0  0  0  0  0  0  0  0  0
    2.0000   -7.7500    0.0000 C   0  0  0  0  0  0  0  0  0  0  0  0
    2.5000   -6.8840    0.0000 C   0  0  0  0  0  0  0  0  0  0  0  0
    9.7942    7.7500    0.0000 C   0  0  0  0  0  0  0  0  0  0  0  0
   10.2942    6.8840    0.0000 C   0  0  0  0  0  0  0  0  0  0  0  0
   12.5263    7.7500    0.0000 C   0  0  0  0  0  0  0  0  0  0  0  0
    4.7320   -7.7500    0.0000 C   0  0  0  0  0  0  0  0  0  0  0  0
    4.7320   -8.7500    0.0000 C   0  0  0  0  0  0  0  0  0  0  0  0
   12.5263    8.7500    0.0000 C   0  0  0  0  0  0  0  0  0  0  0  0
    3.8660   -6.2500    0.0000 C   0  0  0  0  0  0  0  0  0  0  0  0
   11.6603    6.2500    0.0000 C   0  0  0  0  0  0  0  0  0  0  0  0
   13.3923    7.2500    0.0000 C   0  0  0  0  0  0  0  0  0  0  0  0
    5.5981   -7.2500    0.0000 C   0  0  0  0  0  0  0  0  0  0  0  0
    4.7320   -5.7500    0.0000 C   0  0  0  0  0  0  0  0  0  0  0  0
   10.7942    5.7500    0.0000 C   0  0  0  0  0  0  0  0  0  0  0  0
    4.7320   -4.7500    0.0000 C   0  0  0  0  0  0  0  0  0  0  0  0
   10.7942    4.7500    0.0000 C   0  0  0  0  0  0  0  0  0  0  0  0
   11.6603    4.2500    0.0000 C   0  0  0  0  0  0  0  0  0  0  0  0
    3.8660   -4.2500    0.0000 C   0  0  0  0  0  0  0  0  0  0  0  0
    9.9282    4.2500    0.0000 C   0  0  0  0  0  0  0  0  0  0  0  0
    5.5981   -4.2500    0.0000 C   0  0  0  0  0  0  0  0  0  0  0  0
    9.9282    3.2500    0.0000 C   0  0  0  0  0  0  0  0  0  0  0  0
    5.5981   -3.2500    0.0000 C   0  0  0  0  0  0  0  0  0  0  0  0
    9.0622    2.7500    0.0000 C   0  0  0  0  0  0  0  0  0  0  0  0
    6.4641   -2.7500    0.0000 C   0  0  0  0  0  0  0  0  0  0  0  0
    6.4641   -1.7500    0.0000 C   0  0  0  0  0  0  0  0  0  0  0  0
    9.0622    1.7500    0.0000 C   0  0  0  0  0  0  0  0  0  0  0  0
    8.1962    1.2500    0.0000 C   0  0  0  0  0  0  0  0  0  0  0  0
    7.3301   -1.2500    0.0000 C   0  0  0  0  0  0  0  0  0  0  0  0
    5.5981   -1.2500    0.0000 C   0  0  0  0  0  0  0  0  0  0  0  0
    9.9282    1.2500    0.0000 C   0  0  0  0  0  0  0  0  0  0  0  0
    7.3301   -0.2500    0.0000 C   0  0  0  0  0  0  0  0  0  0  0  0
    8.1962    0.2500    0.0000 C   0  0  0  0  0  0  0  0  0  0  0  0
   10.5822    9.3326    0.0000 H   0  0  0  0  0  0  0  0  0  0  0  0
   10.1836    8.6423    0.0000 H   0  0  0  0  0  0  0  0  0  0  0  0
    2.3894   -8.6423    0.0000 H   0  0  0  0  0  0  0  0  0  0  0  0
    2.7880   -9.3326    0.0000 H   0  0  0  0  0  0  0  0  0  0  0  0
    3.4675   -9.7250    0.0000 H   0  0  0  0  0  0  0  0  0  0  0  0
    4.2646   -9.7250    0.0000 H   0  0  0  0  0  0  0  0  0  0  0  0
   12.0588    9.7250    0.0000 H   0  0  0  0  0  0  0  0  0  0  0  0
   11.2617    9.7250    0.0000 H   0  0  0  0  0  0  0  0  0  0  0  0
    2.0000   -7.1300    0.0000 H   0  0  0  0  0  0  0  0  0  0  0  0
    1.3800   -7.7500    0.0000 H   0  0  0  0  0  0  0  0  0  0  0  0
    2.0000   -8.3700    0.0000 H   0  0  0  0  0  0  0  0  0  0  0  0
    3.0369   -6.5740    0.0000 H   0  0  0  0  0  0  0  0  0  0  0  0
    2.1900   -6.3470    0.0000 H   0  0  0  0  0  0  0  0  0  0  0  0
    1.9631   -7.1940    0.0000 H   0  0  0  0  0  0  0  0  0  0  0  0
    9.7942    8.3700    0.0000 H   0  0  0  0  0  0  0  0  0  0  0  0
    9.1742    7.7500    0.0000 H   0  0  0  0  0  0  0  0  0  0  0  0
    9.7942    7.1300    0.0000 H   0  0  0  0  0  0  0  0  0  0  0  0
    9.7573    7.1940    0.0000 H   0  0  0  0  0  0  0  0  0  0  0  0
    9.9842    6.3470    0.0000 H   0  0  0  0  0  0  0  0  0  0  0  0
   10.8312    6.5740    0.0000 H   0  0  0  0  0  0  0  0  0  0  0  0
   12.1972    5.9400    0.0000 H   0  0  0  0  0  0  0  0  0  0  0  0
    3.3291   -5.9400    0.0000 H   0  0  0  0  0  0  0  0  0  0  0  0
   13.0823    6.7131    0.0000 H   0  0  0  0  0  0  0  0  0  0  0  0
    5.9081   -7.7869    0.0000 H   0  0  0  0  0  0  0  0  0  0  0  0
    6.1350   -6.9400    0.0000 H   0  0  0  0  0  0  0  0  0  0  0  0
    5.2881   -6.7131    0.0000 H   0  0  0  0  0  0  0  0  0  0  0  0
   13.9292    6.9400    0.0000 H   0  0  0  0  0  0  0  0  0  0  0  0
   13.7023    7.7869    0.0000 H   0  0  0  0  0  0  0  0  0  0  0  0
   10.2573    6.0600    0.0000 H   0  0  0  0  0  0  0  0  0  0  0  0
    5.2690   -6.0600    0.0000 H   0  0  0  0  0  0  0  0  0  0  0  0
    4.1760   -3.7131    0.0000 H   0  0  0  0  0  0  0  0  0  0  0  0
   11.3503    3.7131    0.0000 H   0  0  0  0  0  0  0  0  0  0  0  0
   12.1972    3.9400    0.0000 H   0  0  0  0  0  0  0  0  0  0  0  0
   11.9703    4.7869    0.0000 H   0  0  0  0  0  0  0  0  0  0  0  0
    3.3291   -3.9400    0.0000 H   0  0  0  0  0  0  0  0  0  0  0  0
    3.5560   -4.7869    0.0000 H   0  0  0  0  0  0  0  0  0  0  0  0
    9.3913    4.5600    0.0000 H   0  0  0  0  0  0  0  0  0  0  0  0
    6.1350   -4.5600    0.0000 H   0  0  0  0  0  0  0  0  0  0  0  0
   10.4651    2.9400    0.0000 H   0  0  0  0  0  0  0  0  0  0  0  0
    5.0611   -2.9400    0.0000 H   0  0  0  0  0  0  0  0  0  0  0  0
    8.5252    3.0600    0.0000 H   0  0  0  0  0  0  0  0  0  0  0  0
    7.0010   -3.0600    0.0000 H   0  0  0  0  0  0  0  0  0  0  0  0
    7.8671   -1.5600    0.0000 H   0  0  0  0  0  0  0  0  0  0  0  0
    7.6592    1.5600    0.0000 H   0  0  0  0  0  0  0  0  0  0  0  0
    9.6182    0.7131    0.0000 H   0  0  0  0  0  0  0  0  0  0  0  0
    5.9081   -0.7131    0.0000 H   0  0  0  0  0  0  0  0  0  0  0  0
    5.0611   -0.9400    0.0000 H   0  0  0  0  0  0  0  0  0  0  0  0
    5.2881   -1.7869    0.0000 H   0  0  0  0  0  0  0  0  0  0  0  0
   10.4651    0.9400    0.0000 H   0  0  0  0  0  0  0  0  0  0  0  0
   10.2382    1.7869    0.0000 H   0  0  0  0  0  0  0  0  0  0  0  0
    6.7932    0.0600    0.0000 H   0  0  0  0  0  0  0  0  0  0  0  0
    8.7331   -0.0600    0.0000 H   0  0  0  0  0  0  0  0  0  0  0  0
  1 18  2  0  0  0  0 
  2 17  2  0  0  0  0 
  3  5  1  0  0  0  0 
  3  8  1  0  0  0  0 
  3 11  1  0  0  0  0 
  3 12  1  0  0  0  0 
  4  6  1  0  0  0  0 
  4  7  1  0  0  0  0 
  4 13  1  0  0  0  0 
  4 14  1  0  0  0  0 
  5 10  1  0  0  0  0 
  5 45  1  0  0  0  0 
  5 46  1  0  0  0  0 
  6  9  1  0  0  0  0 
  6 43  1  0  0  0  0 
  6 44  1  0  0  0  0 
  7 15  2  0  0  0  0 
  7 20  1  0  0  0  0 
  8 16  2  0  0  0  0 
  8 19  1  0  0  0  0 
  9 18  1  0  0  0  0 
  9 49  1  0  0  0  0 
  9 50  1  0  0  0  0 
 10 17  1  0  0  0  0 
 10 47  1  0  0  0  0 
 10 48  1  0  0  0  0 
 11 51  1  0  0  0  0 
 11 52  1  0  0  0  0 
 11 53  1  0  0  0  0 
 12 54  1  0  0  0  0 
 12 55  1  0  0  0  0 
 12 56  1  0  0  0  0 
 13 57  1  0  0  0  0 
 13 58  1  0  0  0  0 
 13 59  1  0  0  0  0 
 14 60  1  0  0  0  0 
 14 61  1  0  0  0  0 
 14 62  1  0  0  0  0 
 15 18  1  0  0  0  0 
 15 21  1  0  0  0  0 
 16 17  1  0  0  0  0 
 16 22  1  0  0  0  0 
 19 23  2  0  0  0  0 
 19 64  1  0  0  0  0 
 20 24  2  0  0  0  0 
 20 63  1  0  0  0  0 
 21 65  1  0  0  0  0 
 21 69  1  0  0  0  0 
 21 70  1  0  0  0  0 
 22 66  1  0  0  0  0 
 22 67  1  0  0  0  0 
 22 68  1  0  0  0  0 
 23 25  1  0  0  0  0 
 23 72  1  0  0  0  0 
 24 26  1  0  0  0  0 
 24 71  1  0  0  0  0 
 25 28  1  0  0  0  0 
 25 30  2  0  0  0  0 
 26 27  1  0  0  0  0 
 26 29  2  0  0  0  0 
 27 74  1  0  0  0  0 
 27 75  1  0  0  0  0 
 27 76  1  0  0  0  0 
 28 73  1  0  0  0  0 
 28 77  1  0  0  0  0 
 28 78  1  0  0  0  0 
 29 31  1  0  0  0  0 
 29 79  1  0  0  0  0 
 30 32  1  0  0  0  0 
 30 80  1  0  0  0  0 
 31 33  2  0  0  0  0 
 31 81  1  0  0  0  0 
 32 34  2  0  0  0  0 
 32 82  1  0  0  0  0 
 33 36  1  0  0  0  0 
 33 83  1  0  0  0  0 
 34 35  1  0  0  0  0 
 34 84  1  0  0  0  0 
 35 38  2  0  0  0  0 
 35 39  1  0  0  0  0 
 36 37  2  0  0  0  0 
 36 40  1  0  0  0  0 
 37 42  1  0  0  0  0 
 37 86  1  0  0  0  0 
 38 41  1  0  0  0  0 
 38 85  1  0  0  0  0 
 39 88  1  0  0  0  0 
 39 89  1  0  0  0  0 
 39 90  1  0  0  0  0 
 40 87  1  0  0  0  0 
 40 91  1  0  0  0  0 
 40 92  1  0  0  0  0 
 41 42  2  0  0  0  0 
 41 93  1  0  0  0  0 
 42 94  1  0  0  0  0 
M  END
> <cdk:Title>
5281227

> <cdk:Remark>
null

> <PUBCHEM_COMPOUND_CID>
5281227

> <PUBCHEM_COMPOUND_CANONICALIZED>
1

> <PUBCHEM_CACTVS_COMPLEXITY>
1270

> <PUBCHEM_CACTVS_HBOND_ACCEPTOR>
2

> <PUBCHEM_CACTVS_HBOND_DONOR>
0

> <PUBCHEM_CACTVS_ROTATABLE_BOND>
10

> <PUBCHEM_CACTVS_SUBSKEYS>
AAADcfB8MAAAAAAAAAAAAAAAAAAAAAAAAAAgQAAAAAAAAAAAAAAAGgAAAAAADgSAgAACAAAAAACIAqBSAAAAAAAgAAAICAEAAEgIABIAAQAAAAAAgAAIgQMIiMAPAAAAAAAAAAAAAAAAAAAAAAAAAAAAAA==

> <PUBCHEM_IUPAC_OPENEYE_NAME>
2,4,4-trimethyl-3-[(1E,3E,5E,7E,9E,11E,13E,15E,17E)-3,7,12,16-tetramethyl-18-(2,6,6-trimethyl-3-oxo-cyclohexen-1-yl)octadeca-1,3,5,7,9,11,13,15,17-nonaenyl]cyclohex-2-en-1-one

> <PUBCHEM_IUPAC_CAS_NAME>
2,4,4-trimethyl-3-[(1E,3E,5E,7E,9E,11E,13E,15E,17E)-3,7,12,16-tetramethyl-18-(2,6,6-trimethyl-3-oxo-1-cyclohexenyl)octadeca-1,3,5,7,9,11,13,15,17-nonaenyl]-1-cyclohex-2-enone

> <PUBCHEM_IUPAC_NAME>
2,4,4-trimethyl-3-[(1E,3E,5E,7E,9E,11E,13E,15E,17E)-3,7,12,16-tetramethyl-18-(2,6,6-trimethyl-3-oxocyclohexen-1-yl)octadeca-1,3,5,7,9,11,13,15,17-nonaenyl]cyclohex-2-en-1-one

> <PUBCHEM_IUPAC_SYSTEMATIC_NAME>
2,4,4-trimethyl-3-[(1E,3E,5E,7E,9E,11E,13E,15E,17E)-3,7,12,16-tetramethyl-18-(2,6,6-trimethyl-3-oxidanylidene-cyclohexen-1-yl)octadeca-1,3,5,7,9,11,13,15,17-nonaenyl]cyclohex-2-en-1-one

> <PUBCHEM_IUPAC_TRADITIONAL_NAME>
3-[(1E,3E,5E,7E,9E,11E,13E,15E,17E)-18-(3-keto-2,6,6-trimethyl-cyclohexen-1-yl)-3,7,12,16-tetramethyl-octadeca-1,3,5,7,9,11,13,15,17-nonaenyl]-2,4,4-trimethyl-cyclohex-2-en-1-one

> <PUBCHEM_IUPAC_INCHI>
InChI=1S/C40H52O2/c1-29(17-13-19-31(3)21-23-35-33(5)37(41)25-27-39(35,7)8)15-11-12-16-30(2)18-14-20-32(4)22-24-36-34(6)38(42)26-28-40(36,9)10/h11-24H,25-28H2,1-10H3/b12-11+,17-13+,18-14+,23-21+,24-22+,29-15+,30-16+,31-19+,32-20+

> <PUBCHEM_IUPAC_INCHIKEY>
FDSDTBUPSURDBL-DKLMTRRASA-N

> <PUBCHEM_XLOGP3_AA>
11.4

> <PUBCHEM_EXACT_MASS>
564.396731

> <PUBCHEM_MOLECULAR_FORMULA>
C40H52O2

> <PUBCHEM_MOLECULAR_WEIGHT>
564.83968

> <PUBCHEM_OPENEYE_CAN_SMILES>
CC1=C(C(CCC1=O)(C)C)C=CC(=CC=CC(=CC=CC=C(C)C=CC=C(C)C=CC2=C(C(=O)CCC2(C)C)C)C)C

> <PUBCHEM_OPENEYE_ISO_SMILES>
CC1=C(C(CCC1=O)(C)C)/C=C/C(=C/C=C/C(=C/C=C/C=C(/C=C/C=C(/C=C/C2=C(C(=O)CCC2(C)C)C)\C)\C)/C)/C

> <PUBCHEM_CACTVS_TPSA>
34.1

> <PUBCHEM_MONOISOTOPIC_WEIGHT>
564.396731

> <PUBCHEM_TOTAL_CHARGE>
0

> <PUBCHEM_HEAVY_ATOM_COUNT>
42

> <PUBCHEM_ATOM_DEF_STEREO_COUNT>
0

> <PUBCHEM_ATOM_UDEF_STEREO_COUNT>
0

> <PUBCHEM_BOND_DEF_STEREO_COUNT>
9

> <PUBCHEM_BOND_UDEF_STEREO_COUNT>
0

> <PUBCHEM_ISOTOPIC_ATOM_COUNT>
0

> <PUBCHEM_COMPONENT_COUNT>
1

> <PUBCHEM_CACTVS_TAUTO_COUNT>
3

> <PUBCHEM_COORDINATE_TYPE>
1
5
255

> <DRUG_ID>
w251

> <DRUG_NAME>
Canthaxanthin

$$$$
16630
  CDK     0927151942
null
 22 23  0  0  0  0  0  0  0  0999 V2000
    2.8954    0.6307    0.0000 O   0  0  0  0  0  0  0  0  0  0  0  0
    4.2044    1.5817    0.0000 N   0  0  0  0  0  0  0  0  0  0  0  0
    2.6166    2.3907    0.0000 N   0  0  0  0  0  0  0  0  0  0  0  0
    3.7044    0.0429    0.0000 C   0  0  3  0  0  0  0  0  0  0  0  0
    4.5134    0.6307    0.0000 C   0  0  0  0  0  0  0  0  0  0  0  0
    3.7044   -0.9571    0.0000 C   0  0  0  0  0  0  0  0  0  0  0  0
    2.8384   -1.4571    0.0000 C   0  0  0  0  0  0  0  0  0  0  0  0
    4.5704   -1.4571    0.0000 C   0  0  0  0  0  0  0  0  0  0  0  0
    3.2044    1.5817    0.0000 C   0  0  0  0  0  0  0  0  0  0  0  0
    2.8384   -2.4571    0.0000 C   0  0  0  0  0  0  0  0  0  0  0  0
    4.5704   -2.4571    0.0000 C   0  0  0  0  0  0  0  0  0  0  0  0
    3.7044   -2.9571    0.0000 C   0  0  0  0  0  0  0  0  0  0  0  0
    4.4617   -0.3430    0.0000 H   0  0  0  0  0  0  0  0  0  0  0  0
    4.8234    0.0937    0.0000 H   0  0  0  0  0  0  0  0  0  0  0  0
    5.0798    0.8828    0.0000 H   0  0  0  0  0  0  0  0  0  0  0  0
    2.3014   -1.1471    0.0000 H   0  0  0  0  0  0  0  0  0  0  0  0
    5.1074   -1.1471    0.0000 H   0  0  0  0  0  0  0  0  0  0  0  0
    2.3014   -2.7671    0.0000 H   0  0  0  0  0  0  0  0  0  0  0  0
    5.1074   -2.7671    0.0000 H   0  0  0  0  0  0  0  0  0  0  0  0
    3.7044   -3.5771    0.0000 H   0  0  0  0  0  0  0  0  0  0  0  0
    2.8688    2.9571    0.0000 H   0  0  0  0  0  0  0  0  0  0  0  0
    2.0000    2.3259    0.0000 H   0  0  0  0  0  0  0  0  0  0  0  0
  1  4  1  0  0  0  0 
  1  9  1  0  0  0  0 
  2  5  1  0  0  0  0 
  2  9  2  0  0  0  0 
  3  9  1  0  0  0  0 
  3 21  1  0  0  0  0 
  3 22  1  0  0  0  0 
  4  5  1  0  0  0  0 
  4  6  1  0  0  0  0 
  4 13  1  0  0  0  0 
  5 14  1  0  0  0  0 
  5 15  1  0  0  0  0 
  6  7  2  0  0  0  0 
  6  8  1  0  0  0  0 
  7 10  1  0  0  0  0 
  7 16  1  0  0  0  0 
  8 11  2  0  0  0  0 
  8 17  1  0  0  0  0 
 10 12  2  0  0  0  0 
 10 18  1  0  0  0  0 
 11 12  1  0  0  0  0 
 11 19  1  0  0  0  0 
 12 20  1  0  0  0  0 
M  END
> <cdk:Title>
16630

> <cdk:Remark>
null

> <PUBCHEM_COMPOUND_CID>
16630

> <PUBCHEM_COMPOUND_CANONICALIZED>
1

> <PUBCHEM_CACTVS_COMPLEXITY>
185

> <PUBCHEM_CACTVS_HBOND_ACCEPTOR>
2

> <PUBCHEM_CACTVS_HBOND_DONOR>
1

> <PUBCHEM_CACTVS_ROTATABLE_BOND>
1

> <PUBCHEM_CACTVS_SUBSKEYS>
AAADccBzIAAAAAAAAAAAAAAAAAAAAQAAAAAwAAAAAAAAAAABAAAAHgAQAAAADBThmAYxAIJABACgAiBCJAACAAEgAAAIiAAACIkKJiKAsRmJMAAkwAEIqAeQwKAOAAAAAAAAAAAAAAAAAAAAAAAAAAAAAA==

> <PUBCHEM_IUPAC_OPENEYE_NAME>
5-phenyl-4,5-dihydrooxazol-2-amine

> <PUBCHEM_IUPAC_CAS_NAME>
5-phenyl-4,5-dihydrooxazol-2-amine

> <PUBCHEM_IUPAC_NAME>
5-phenyl-4,5-dihydro-1,3-oxazol-2-amine

> <PUBCHEM_IUPAC_SYSTEMATIC_NAME>
5-phenyl-4,5-dihydro-1,3-oxazol-2-amine

> <PUBCHEM_IUPAC_TRADITIONAL_NAME>
(5-phenyl-2-oxazolin-2-yl)amine

> <PUBCHEM_IUPAC_INCHI>
InChI=1S/C9H10N2O/c10-9-11-6-8(12-9)7-4-2-1-3-5-7/h1-5,8H,6H2,(H2,10,11)

> <PUBCHEM_IUPAC_INCHIKEY>
SYAKTDIEAPMBAL-UHFFFAOYSA-N

> <PUBCHEM_XLOGP3_AA>
0.8

> <PUBCHEM_EXACT_MASS>
162.079313

> <PUBCHEM_MOLECULAR_FORMULA>
C9H10N2O

> <PUBCHEM_MOLECULAR_WEIGHT>
162.1885

> <PUBCHEM_OPENEYE_CAN_SMILES>
C1C(OC(=N1)N)C2=CC=CC=C2

> <PUBCHEM_OPENEYE_ISO_SMILES>
C1C(OC(=N1)N)C2=CC=CC=C2

> <PUBCHEM_CACTVS_TPSA>
47.6

> <PUBCHEM_MONOISOTOPIC_WEIGHT>
162.079313

> <PUBCHEM_TOTAL_CHARGE>
0

> <PUBCHEM_HEAVY_ATOM_COUNT>
12

> <PUBCHEM_ATOM_DEF_STEREO_COUNT>
0

> <PUBCHEM_ATOM_UDEF_STEREO_COUNT>
1

> <PUBCHEM_BOND_DEF_STEREO_COUNT>
0

> <PUBCHEM_BOND_UDEF_STEREO_COUNT>
0

> <PUBCHEM_ISOTOPIC_ATOM_COUNT>
0

> <PUBCHEM_COMPONENT_COUNT>
1

> <PUBCHEM_CACTVS_TAUTO_COUNT>
2

> <PUBCHEM_COORDINATE_TYPE>
1
5
255

> <PUBCHEM_BONDANNOTATIONS>
10  12  8
11  12  8
4  13  3
6  7  8
6  8  8
7  10  8
8  11  8

> <DRUG_ID>
w252

> <DRUG_NAME>
Aminorex Fumarate

$$$$
6083
  CDK     0927151942
null
 37 39  0  0  0  0  0  0  0  0999 V2000
    8.4752    2.5896    0.0000 P   0  0  0  0  0  0  0  0  0  0  0  0
    5.9405    0.8252    0.0000 O   0  0  0  0  0  0  0  0  0  0  0  0
    3.4026    1.3296    0.0000 O   0  0  0  0  0  0  0  0  0  0  0  0
    4.6844    3.0874    0.0000 O   0  0  0  0  0  0  0  0  0  0  0  0
    7.6651    2.0032    0.0000 O   0  0  0  0  0  0  0  0  0  0  0  0
    9.2852    3.1760    0.0000 O   0  0  0  0  0  0  0  0  0  0  0  0
    9.0615    1.7796    0.0000 O   0  0  0  0  0  0  0  0  0  0  0  0
    7.8888    3.3996    0.0000 O   0  0  0  0  0  0  0  0  0  0  0  0
    4.6783   -0.4327    0.0000 N   0  0  0  0  0  0  0  0  0  0  0  0
    4.6783   -2.0422    0.0000 N   0  0  0  0  0  0  0  0  0  0  0  0
    2.8660   -0.2375    0.0000 N   0  0  0  0  0  0  0  0  0  0  0  0
    2.0000   -1.7374    0.0000 N   0  0  0  0  0  0  0  0  0  0  0  0
    2.8660   -3.2374    0.0000 N   0  0  0  0  0  0  0  0  0  0  0  0
    4.4026    1.3278    0.0000 C   0  0  2  0  0  0  0  0  0  0  0  0
    4.9917    2.1358    0.0000 C   0  0  1  0  0  0  0  0  0  0  0  0
    4.9889    0.5178    0.0000 C   0  0  1  0  0  0  0  0  0  0  0  0
    5.9422    1.8252    0.0000 C   0  0  1  0  0  0  0  0  0  0  0  0
    6.7523    2.4116    0.0000 C   0  0  0  0  0  0  0  0  0  0  0  0
    3.7320   -0.7375    0.0000 C   0  0  0  0  0  0  0  0  0  0  0  0
    5.2619   -1.2374    0.0000 C   0  0  0  0  0  0  0  0  0  0  0  0
    3.7320   -1.7374    0.0000 C   0  0  0  0  0  0  0  0  0  0  0  0
    2.8660   -2.2374    0.0000 C   0  0  0  0  0  0  0  0  0  0  0  0
    2.0000   -0.7375    0.0000 C   0  0  0  0  0  0  0  0  0  0  0  0
    4.1220    1.8807    0.0000 H   0  0  0  0  0  0  0  0  0  0  0  0
    5.4309    2.5735    0.0000 H   0  0  0  0  0  0  0  0  0  0  0  0
    5.4266    0.0786    0.0000 H   0  0  0  0  0  0  0  0  0  0  0  0
    6.4942    1.5427    0.0000 H   0  0  0  0  0  0  0  0  0  0  0  0
    7.0999    2.9250    0.0000 H   0  0  0  0  0  0  0  0  0  0  0  0
    6.3070    2.8430    0.0000 H   0  0  0  0  0  0  0  0  0  0  0  0
    3.0935    1.8670    0.0000 H   0  0  0  0  0  0  0  0  0  0  0  0
    5.1000    3.5474    0.0000 H   0  0  0  0  0  0  0  0  0  0  0  0
    5.8819   -1.2374    0.0000 H   0  0  0  0  0  0  0  0  0  0  0  0
    1.4631   -0.4275    0.0000 H   0  0  0  0  0  0  0  0  0  0  0  0
    2.3291   -3.5474    0.0000 H   0  0  0  0  0  0  0  0  0  0  0  0
    3.4030   -3.5474    0.0000 H   0  0  0  0  0  0  0  0  0  0  0  0
    8.8084    1.2136    0.0000 H   0  0  0  0  0  0  0  0  0  0  0  0
    9.8512    2.9228    0.0000 H   0  0  0  0  0  0  0  0  0  0  0  0
  1  5  1  0  0  0  0 
  1  6  1  0  0  0  0 
  1  7  1  0  0  0  0 
  1  8  2  0  0  0  0 
  2 16  1  0  0  0  0 
  2 17  1  0  0  0  0 
 14  3  1  6  0  0  0 
  3 30  1  0  0  0  0 
 15  4  1  6  0  0  0 
  4 31  1  0  0  0  0 
  5 18  1  0  0  0  0 
  6 37  1  0  0  0  0 
  7 36  1  0  0  0  0 
 16  9  1  1  0  0  0 
  9 19  1  0  0  0  0 
  9 20  1  0  0  0  0 
 10 20  2  0  0  0  0 
 10 21  1  0  0  0  0 
 11 19  2  0  0  0  0 
 11 23  1  0  0  0  0 
 12 22  1  0  0  0  0 
 12 23  2  0  0  0  0 
 13 22  1  0  0  0  0 
 13 34  1  0  0  0  0 
 13 35  1  0  0  0  0 
 14 15  1  0  0  0  0 
 14 16  1  0  0  0  0 
 14 24  1  0  0  0  0 
 15 17  1  0  0  0  0 
 15 25  1  0  0  0  0 
 16 26  1  0  0  0  0 
 17 18  1  1  0  0  0 
 17 27  1  0  0  0  0 
 18 28  1  0  0  0  0 
 18 29  1  0  0  0  0 
 19 21  1  0  0  0  0 
 20 32  1  0  0  0  0 
 21 22  2  0  0  0  0 
 23 33  1  0  0  0  0 
M  END
> <cdk:Title>
6083

> <cdk:Remark>
null

> <PUBCHEM_COMPOUND_CID>
6083

> <PUBCHEM_COMPOUND_CANONICALIZED>
1

> <PUBCHEM_CACTVS_COMPLEXITY>
481

> <PUBCHEM_CACTVS_HBOND_ACCEPTOR>
11

> <PUBCHEM_CACTVS_HBOND_DONOR>
5

> <PUBCHEM_CACTVS_ROTATABLE_BOND>
4

> <PUBCHEM_CACTVS_SUBSKEYS>
AAADccBzuAIAAAAAAAAAAAAAAAAAAWJAAAAsAAAAAAAAAFgB+AAAHgAQCCAACBzhlwYF8L9MFxCgQQZhZICAgC0REKABUCAoVBCDWAJAyEAeRAgPAALTACDwMAIAAAAAAAAAAAAAAAAAAAAAAAAAAAAAAA==

> <PUBCHEM_IUPAC_OPENEYE_NAME>
[(2R,3S,4R,5R)-5-(6-aminopurin-9-yl)-3,4-dihydroxy-tetrahydrofuran-2-yl]methyl dihydrogen phosphate

> <PUBCHEM_IUPAC_CAS_NAME>
[(2R,3S,4R,5R)-5-(6-aminopurin-9-yl)-3,4-dihydroxy-2-oxolanyl]methyl dihydrogen phosphate

> <PUBCHEM_IUPAC_NAME>
[(2R,3S,4R,5R)-5-(6-aminopurin-9-yl)-3,4-dihydroxyoxolan-2-yl]methyl dihydrogen phosphate

> <PUBCHEM_IUPAC_SYSTEMATIC_NAME>
[(2R,3S,4R,5R)-5-(6-aminopurin-9-yl)-3,4-bis(oxidanyl)oxolan-2-yl]methyl dihydrogen phosphate

> <PUBCHEM_IUPAC_TRADITIONAL_NAME>
[(2R,3S,4R,5R)-5-adenin-9-yl-3,4-dihydroxy-tetrahydrofuran-2-yl]methyl dihydrogen phosphate

> <PUBCHEM_IUPAC_INCHI>
InChI=1S/C10H14N5O7P/c11-8-5-9(13-2-12-8)15(3-14-5)10-7(17)6(16)4(22-10)1-21-23(18,19)20/h2-4,6-7,10,16-17H,1H2,(H2,11,12,13)(H2,18,19,20)/t4-,6-,7-,10-/m1/s1

> <PUBCHEM_IUPAC_INCHIKEY>
UDMBCSSLTHHNCD-KQYNXXCUSA-N

> <PUBCHEM_XLOGP3>
-3.5

> <PUBCHEM_EXACT_MASS>
347.063084

> <PUBCHEM_MOLECULAR_FORMULA>
C10H14N5O7P

> <PUBCHEM_MOLECULAR_WEIGHT>
347.221222

> <PUBCHEM_OPENEYE_CAN_SMILES>
C1=NC2=C(C(=N1)N)N=CN2C3C(C(C(O3)COP(=O)(O)O)O)O

> <PUBCHEM_OPENEYE_ISO_SMILES>
C1=NC2=C(C(=N1)N)N=CN2[C@H]3[C@@H]([C@@H]([C@H](O3)COP(=O)(O)O)O)O

> <PUBCHEM_CACTVS_TPSA>
186

> <PUBCHEM_MONOISOTOPIC_WEIGHT>
347.063084

> <PUBCHEM_TOTAL_CHARGE>
0

> <PUBCHEM_HEAVY_ATOM_COUNT>
23

> <PUBCHEM_ATOM_DEF_STEREO_COUNT>
4

> <PUBCHEM_ATOM_UDEF_STEREO_COUNT>
0

> <PUBCHEM_BOND_DEF_STEREO_COUNT>
0

> <PUBCHEM_BOND_UDEF_STEREO_COUNT>
0

> <PUBCHEM_ISOTOPIC_ATOM_COUNT>
0

> <PUBCHEM_COMPONENT_COUNT>
1

> <PUBCHEM_CACTVS_TAUTO_COUNT>
3

> <PUBCHEM_COORDINATE_TYPE>
1
5
255

> <PUBCHEM_BONDANNOTATIONS>
10  20  8
10  21  8
11  19  8
11  23  8
12  22  8
12  23  8
17  18  5
19  21  8
21  22  8
14  3  6
15  4  6
16  9  5
9  19  8
9  20  8

> <DRUG_ID>
w253

> <DRUG_NAME>
Adenosine Phosphate

$$$$
159325
  CDK     0927151942
null
 66 68  0  0  0  0  0  0  0  0999 V2000
    9.8583   -0.3445    0.0000 F   0  0  0  0  0  0  0  0  0  0  0  0
    9.4976    1.0230    0.0000 F   0  0  0  0  0  0  0  0  0  0  0  0
    8.4909   -0.7052    0.0000 F   0  0  0  0  0  0  0  0  0  0  0  0
    7.1962   -4.8170    0.0000 F   0  0  0  0  0  0  0  0  0  0  0  0
    5.8301   -5.1830    0.0000 F   0  0  0  0  0  0  0  0  0  0  0  0
    6.8301   -3.4510    0.0000 F   0  0  0  0  0  0  0  0  0  0  0  0
    2.0000   -4.8170    0.0000 F   0  0  0  0  0  0  0  0  0  0  0  0
    3.3660   -5.1830    0.0000 F   0  0  0  0  0  0  0  0  0  0  0  0
    2.3660   -3.4510    0.0000 F   0  0  0  0  0  0  0  0  0  0  0  0
    4.5981    3.6830    0.0000 O   0  0  0  0  0  0  0  0  0  0  0  0
    6.3301   -2.3170    0.0000 O   0  0  0  0  0  0  0  0  0  0  0  0
    6.3301    3.6830    0.0000 O   0  0  0  0  0  0  0  0  0  0  0  0
    7.1962   -0.8170    0.0000 O   0  0  0  0  0  0  0  0  0  0  0  0
    5.4641    2.1830    0.0000 N   0  0  0  0  0  0  0  0  0  0  0  0
    5.4641   -0.8170    0.0000 N   0  0  0  0  0  0  0  0  0  0  0  0
    4.5981    1.6830    0.0000 C   0  0  1  0  0  0  0  0  0  0  0  0
    5.4641    0.1830    0.0000 C   0  0  1  0  0  0  0  0  0  0  0  0
    4.5981    0.6830    0.0000 C   0  0  0  0  0  0  0  0  0  0  0  0
    6.3301    0.6830    0.0000 C   0  0  0  0  0  0  0  0  0  0  0  0
    6.3301    1.6830    0.0000 C   0  0  0  0  0  0  0  0  0  0  0  0
    3.7320    2.1830    0.0000 C   0  0  0  0  0  0  0  0  0  0  0  0
    7.2241    0.1484    0.0000 C   0  0  0  0  0  0  0  0  0  0  0  0
    4.5981   -1.3170    0.0000 C   0  0  0  0  0  0  0  0  0  0  0  0
    7.2241    2.2177    0.0000 C   0  0  0  0  0  0  0  0  0  0  0  0
    2.8660    1.6830    0.0000 C   0  0  0  0  0  0  0  0  0  0  0  0
    5.4641    3.1830    0.0000 C   0  0  0  0  0  0  0  0  0  0  0  0
    8.1301    0.6622    0.0000 C   0  0  0  0  0  0  0  0  0  0  0  0
    8.1301    1.7038    0.0000 C   0  0  0  0  0  0  0  0  0  0  0  0
    6.3301   -1.3170    0.0000 C   0  0  0  0  0  0  0  0  0  0  0  0
    4.5981   -2.3170    0.0000 C   0  0  0  0  0  0  0  0  0  0  0  0
    8.9942    0.1589    0.0000 C   0  0  0  0  0  0  0  0  0  0  0  0
    3.7320   -2.8170    0.0000 C   0  0  0  0  0  0  0  0  0  0  0  0
    5.4641   -2.8170    0.0000 C   0  0  0  0  0  0  0  0  0  0  0  0
    3.7320   -3.8170    0.0000 C   0  0  0  0  0  0  0  0  0  0  0  0
    5.4641   -3.8170    0.0000 C   0  0  0  0  0  0  0  0  0  0  0  0
    4.5981    4.6830    0.0000 C   0  0  0  0  0  0  0  0  0  0  0  0
    4.5981   -4.3170    0.0000 C   0  0  0  0  0  0  0  0  0  0  0  0
    7.1962   -2.8170    0.0000 C   0  0  0  0  0  0  0  0  0  0  0  0
    6.3301   -4.3170    0.0000 C   0  0  0  0  0  0  0  0  0  0  0  0
    2.8660   -4.3170    0.0000 C   0  0  0  0  0  0  0  0  0  0  0  0
    3.7320    5.1830    0.0000 C   0  0  0  0  0  0  0  0  0  0  0  0
    4.5981    2.3030    0.0000 H   0  0  0  0  0  0  0  0  0  0  0  0
    6.0010   -0.1270    0.0000 H   0  0  0  0  0  0  0  0  0  0  0  0
    3.9875    0.7907    0.0000 H   0  0  0  0  0  0  0  0  0  0  0  0
    4.3860    0.1004    0.0000 H   0  0  0  0  0  0  0  0  0  0  0  0
    4.1306    2.6580    0.0000 H   0  0  0  0  0  0  0  0  0  0  0  0
    3.3335    2.6580    0.0000 H   0  0  0  0  0  0  0  0  0  0  0  0
    7.2169   -0.4716    0.0000 H   0  0  0  0  0  0  0  0  0  0  0  0
    4.3860   -0.7344    0.0000 H   0  0  0  0  0  0  0  0  0  0  0  0
    3.9875   -1.4246    0.0000 H   0  0  0  0  0  0  0  0  0  0  0  0
    7.2169    2.8376    0.0000 H   0  0  0  0  0  0  0  0  0  0  0  0
    2.5560    2.2200    0.0000 H   0  0  0  0  0  0  0  0  0  0  0  0
    2.3291    1.3730    0.0000 H   0  0  0  0  0  0  0  0  0  0  0  0
    3.1760    1.1461    0.0000 H   0  0  0  0  0  0  0  0  0  0  0  0
    8.6659    2.0159    0.0000 H   0  0  0  0  0  0  0  0  0  0  0  0
    3.1951   -2.5070    0.0000 H   0  0  0  0  0  0  0  0  0  0  0  0
    6.0010   -2.5070    0.0000 H   0  0  0  0  0  0  0  0  0  0  0  0
    5.2087    4.5754    0.0000 H   0  0  0  0  0  0  0  0  0  0  0  0
    4.8101    5.2656    0.0000 H   0  0  0  0  0  0  0  0  0  0  0  0
    4.5981   -4.9370    0.0000 H   0  0  0  0  0  0  0  0  0  0  0  0
    6.8862   -3.3539    0.0000 H   0  0  0  0  0  0  0  0  0  0  0  0
    7.7331   -3.1270    0.0000 H   0  0  0  0  0  0  0  0  0  0  0  0
    7.5062   -2.2800    0.0000 H   0  0  0  0  0  0  0  0  0  0  0  0
    4.0420    5.7200    0.0000 H   0  0  0  0  0  0  0  0  0  0  0  0
    3.1951    5.4930    0.0000 H   0  0  0  0  0  0  0  0  0  0  0  0
    3.4220    4.6461    0.0000 H   0  0  0  0  0  0  0  0  0  0  0  0
  1 31  1  0  0  0  0 
  2 31  1  0  0  0  0 
  3 31  1  0  0  0  0 
  4 39  1  0  0  0  0 
  5 39  1  0  0  0  0 
  6 39  1  0  0  0  0 
  7 40  1  0  0  0  0 
  8 40  1  0  0  0  0 
  9 40  1  0  0  0  0 
 10 26  1  0  0  0  0 
 10 36  1  0  0  0  0 
 11 29  1  0  0  0  0 
 11 38  1  0  0  0  0 
 12 26  2  0  0  0  0 
 13 29  2  0  0  0  0 
 14 16  1  0  0  0  0 
 14 20  1  0  0  0  0 
 14 26  1  0  0  0  0 
 17 15  1  1  0  0  0 
 15 23  1  0  0  0  0 
 15 29  1  0  0  0  0 
 16 18  1  0  0  0  0 
 16 21  1  1  0  0  0 
 16 42  1  0  0  0  0 
 17 18  1  0  0  0  0 
 17 19  1  0  0  0  0 
 17 43  1  0  0  0  0 
 18 44  1  0  0  0  0 
 18 45  1  0  0  0  0 
 19 20  2  0  0  0  0 
 19 22  1  0  0  0  0 
 20 24  1  0  0  0  0 
 21 25  1  0  0  0  0 
 21 46  1  0  0  0  0 
 21 47  1  0  0  0  0 
 22 27  2  0  0  0  0 
 22 48  1  0  0  0  0 
 23 30  1  0  0  0  0 
 23 49  1  0  0  0  0 
 23 50  1  0  0  0  0 
 24 28  2  0  0  0  0 
 24 51  1  0  0  0  0 
 25 52  1  0  0  0  0 
 25 53  1  0  0  0  0 
 25 54  1  0  0  0  0 
 27 28  1  0  0  0  0 
 27 31  1  0  0  0  0 
 28 55  1  0  0  0  0 
 30 32  2  0  0  0  0 
 30 33  1  0  0  0  0 
 32 34  1  0  0  0  0 
 32 56  1  0  0  0  0 
 33 35  2  0  0  0  0 
 33 57  1  0  0  0  0 
 34 37  2  0  0  0  0 
 34 40  1  0  0  0  0 
 35 37  1  0  0  0  0 
 35 39  1  0  0  0  0 
 36 41  1  0  0  0  0 
 36 58  1  0  0  0  0 
 36 59  1  0  0  0  0 
 37 60  1  0  0  0  0 
 38 61  1  0  0  0  0 
 38 62  1  0  0  0  0 
 38 63  1  0  0  0  0 
 41 64  1  0  0  0  0 
 41 65  1  0  0  0  0 
 41 66  1  0  0  0  0 
M  END
> <cdk:Title>
159325

> <cdk:Remark>
null

> <PUBCHEM_COMPOUND_CID>
159325

> <PUBCHEM_COMPOUND_CANONICALIZED>
1

> <PUBCHEM_CACTVS_COMPLEXITY>
889

> <PUBCHEM_CACTVS_HBOND_ACCEPTOR>
13

> <PUBCHEM_CACTVS_HBOND_DONOR>
0

> <PUBCHEM_CACTVS_ROTATABLE_BOND>
7

> <PUBCHEM_CACTVS_SUBSKEYS>
AAADceB7OcAAAAAAAAAAAAAAAAAAAAAAAAA8YIAAAAAAAACxQAAAHwAAAAAADCjhmBYyyIMABACIAiRCWACCAAAhAgAIiAAIZIgIICLA0ZGMIAhghgDIyAcQgMAOCAACAAACAAAQAAQAAAQAAAAAAAAAAA==

> <PUBCHEM_IUPAC_OPENEYE_NAME>
ethyl (2R,4S)-4-[[3,5-bis(trifluoromethyl)phenyl]methyl-methoxycarbonyl-amino]-2-ethyl-6-(trifluoromethyl)-3,4-dihydro-2H-quinoline-1-carboxylate

> <PUBCHEM_IUPAC_CAS_NAME>
(2R,4S)-4-[[3,5-bis(trifluoromethyl)phenyl]methyl-methoxycarbonylamino]-2-ethyl-6-(trifluoromethyl)-3,4-dihydro-2H-quinoline-1-carboxylic acid ethyl ester

> <PUBCHEM_IUPAC_NAME>
ethyl (2R,4S)-4-[[3,5-bis(trifluoromethyl)phenyl]methyl-methoxycarbonylamino]-2-ethyl-6-(trifluoromethyl)-3,4-dihydro-2H-quinoline-1-carboxylate

> <PUBCHEM_IUPAC_SYSTEMATIC_NAME>
ethyl (2R,4S)-4-[[3,5-bis(trifluoromethyl)phenyl]methyl-methoxycarbonyl-amino]-2-ethyl-6-(trifluoromethyl)-3,4-dihydro-2H-quinoline-1-carboxylate

> <PUBCHEM_IUPAC_TRADITIONAL_NAME>
(2R,4S)-4-[[3,5-bis(trifluoromethyl)benzyl]-carbomethoxy-amino]-2-ethyl-6-(trifluoromethyl)-3,4-dihydro-2H-quinoline-1-carboxylic acid ethyl ester

> <PUBCHEM_IUPAC_INCHI>
InChI=1S/C26H25F9N2O4/c1-4-18-12-21(19-11-15(24(27,28)29)6-7-20(19)37(18)23(39)41-5-2)36(22(38)40-3)13-14-8-16(25(30,31)32)10-17(9-14)26(33,34)35/h6-11,18,21H,4-5,12-13H2,1-3H3/t18-,21+/m1/s1

> <PUBCHEM_IUPAC_INCHIKEY>
CMSGWTNRGKRWGS-NQIIRXRSSA-N

> <PUBCHEM_XLOGP3_AA>
7

> <PUBCHEM_EXACT_MASS>
600.167061

> <PUBCHEM_MOLECULAR_FORMULA>
C26H25F9N2O4

> <PUBCHEM_MOLECULAR_WEIGHT>
600.473329

> <PUBCHEM_OPENEYE_CAN_SMILES>
CCC1CC(C2=C(N1C(=O)OCC)C=CC(=C2)C(F)(F)F)N(CC3=CC(=CC(=C3)C(F)(F)F)C(F)(F)F)C(=O)OC

> <PUBCHEM_OPENEYE_ISO_SMILES>
CC[C@@H]1C[C@@H](C2=C(N1C(=O)OCC)C=CC(=C2)C(F)(F)F)N(CC3=CC(=CC(=C3)C(F)(F)F)C(F)(F)F)C(=O)OC

> <PUBCHEM_CACTVS_TPSA>
59.1

> <PUBCHEM_MONOISOTOPIC_WEIGHT>
600.167061

> <PUBCHEM_TOTAL_CHARGE>
0

> <PUBCHEM_HEAVY_ATOM_COUNT>
41

> <PUBCHEM_ATOM_DEF_STEREO_COUNT>
2

> <PUBCHEM_ATOM_UDEF_STEREO_COUNT>
0

> <PUBCHEM_BOND_DEF_STEREO_COUNT>
0

> <PUBCHEM_BOND_UDEF_STEREO_COUNT>
0

> <PUBCHEM_ISOTOPIC_ATOM_COUNT>
0

> <PUBCHEM_COMPONENT_COUNT>
1

> <PUBCHEM_CACTVS_TAUTO_COUNT>
1

> <PUBCHEM_COORDINATE_TYPE>
1
5
255

> <PUBCHEM_BONDANNOTATIONS>
17  15  5
16  21  5
19  20  8
19  22  8
20  24  8
22  27  8
24  28  8
27  28  8
30  32  8
30  33  8
32  34  8
33  35  8
34  37  8
35  37  8

> <DRUG_ID>
w254

> <DRUG_NAME>
Torcetrapib

$$$$
9701
  CDK     0927151942
null
 28 28  0  0  0  0  0  0  0  0999 V2000
    2.0000    1.6550    0.0000 O   0  0  0  0  0  0  0  0  0  0  0  0
    2.8660   -2.8450    0.0000 O   0  0  0  0  0  0  0  0  0  0  0  0
    3.7320    2.6550    0.0000 N   0  0  0  0  0  0  0  0  0  0  0  0
    3.7320    1.6550    0.0000 C   0  0  3  0  0  0  0  0  0  0  0  0
    2.8660    1.1550    0.0000 C   0  0  3  0  0  0  0  0  0  0  0  0
    2.8660    0.1550    0.0000 C   0  0  0  0  0  0  0  0  0  0  0  0
    4.5981    1.1550    0.0000 C   0  0  0  0  0  0  0  0  0  0  0  0
    2.0000   -0.3450    0.0000 C   0  0  0  0  0  0  0  0  0  0  0  0
    3.7320   -0.3450    0.0000 C   0  0  0  0  0  0  0  0  0  0  0  0
    4.5981    3.1550    0.0000 C   0  0  0  0  0  0  0  0  0  0  0  0
    2.0000   -1.3450    0.0000 C   0  0  0  0  0  0  0  0  0  0  0  0
    3.7320   -1.3450    0.0000 C   0  0  0  0  0  0  0  0  0  0  0  0
    2.8660   -1.8450    0.0000 C   0  0  0  0  0  0  0  0  0  0  0  0
    4.4682    2.0800    0.0000 H   0  0  0  0  0  0  0  0  0  0  0  0
    2.8660    2.0050    0.0000 H   0  0  0  0  0  0  0  0  0  0  0  0
    4.2881    0.6181    0.0000 H   0  0  0  0  0  0  0  0  0  0  0  0
    5.1350    0.8450    0.0000 H   0  0  0  0  0  0  0  0  0  0  0  0
    4.9081    1.6919    0.0000 H   0  0  0  0  0  0  0  0  0  0  0  0
    3.1951    2.9650    0.0000 H   0  0  0  0  0  0  0  0  0  0  0  0
    1.4631   -0.0350    0.0000 H   0  0  0  0  0  0  0  0  0  0  0  0
    4.2690   -0.0350    0.0000 H   0  0  0  0  0  0  0  0  0  0  0  0
    2.0000    2.2750    0.0000 H   0  0  0  0  0  0  0  0  0  0  0  0
    4.9081    2.6181    0.0000 H   0  0  0  0  0  0  0  0  0  0  0  0
    5.1350    3.4650    0.0000 H   0  0  0  0  0  0  0  0  0  0  0  0
    4.2881    3.6919    0.0000 H   0  0  0  0  0  0  0  0  0  0  0  0
    1.4631   -1.6550    0.0000 H   0  0  0  0  0  0  0  0  0  0  0  0
    4.2690   -1.6550    0.0000 H   0  0  0  0  0  0  0  0  0  0  0  0
    2.3291   -3.1550    0.0000 H   0  0  0  0  0  0  0  0  0  0  0  0
  1  5  1  0  0  0  0 
  1 22  1  0  0  0  0 
  2 13  1  0  0  0  0 
  2 28  1  0  0  0  0 
  3  4  1  0  0  0  0 
  3 10  1  0  0  0  0 
  3 19  1  0  0  0  0 
  4  5  1  0  0  0  0 
  4  7  1  0  0  0  0 
  4 14  1  0  0  0  0 
  5  6  1  0  0  0  0 
  5 15  1  0  0  0  0 
  6  8  2  0  0  0  0 
  6  9  1  0  0  0  0 
  7 16  1  0  0  0  0 
  7 17  1  0  0  0  0 
  7 18  1  0  0  0  0 
  8 11  1  0  0  0  0 
  8 20  1  0  0  0  0 
  9 12  2  0  0  0  0 
  9 21  1  0  0  0  0 
 10 23  1  0  0  0  0 
 10 24  1  0  0  0  0 
 10 25  1  0  0  0  0 
 11 13  2  0  0  0  0 
 11 26  1  0  0  0  0 
 12 13  1  0  0  0  0 
 12 27  1  0  0  0  0 
M  END
> <cdk:Title>
9701

> <cdk:Remark>
null

> <PUBCHEM_COMPOUND_CID>
9701

> <PUBCHEM_COMPOUND_CANONICALIZED>
1

> <PUBCHEM_CACTVS_COMPLEXITY>
144

> <PUBCHEM_CACTVS_HBOND_ACCEPTOR>
3

> <PUBCHEM_CACTVS_HBOND_DONOR>
3

> <PUBCHEM_CACTVS_ROTATABLE_BOND>
3

> <PUBCHEM_CACTVS_SUBSKEYS>
AAADccByMAAAAAAAAAAAAAAAAAAAAAAAAAAwAAAAAAAAAAABAAAAHgAQCAAADDzhmAYyBoLAAgCAAiBCAAACAAAgIAAIiIAOCIgKNiKCkROEcAAk0BEYmAeQ4KQOIAAAAAAAAABAAAAAAAAAAAAAAAAAAA==

> <PUBCHEM_IUPAC_OPENEYE_NAME>
4-[1-hydroxy-2-(methylamino)propyl]phenol

> <PUBCHEM_IUPAC_CAS_NAME>
4-[1-hydroxy-2-(methylamino)propyl]phenol

> <PUBCHEM_IUPAC_NAME>
4-[1-hydroxy-2-(methylamino)propyl]phenol

> <PUBCHEM_IUPAC_SYSTEMATIC_NAME>
4-[2-(methylamino)-1-oxidanyl-propyl]phenol

> <PUBCHEM_IUPAC_TRADITIONAL_NAME>
4-[1-hydroxy-2-(methylamino)propyl]phenol

> <PUBCHEM_IUPAC_INCHI>
InChI=1S/C10H15NO2/c1-7(11-2)10(13)8-3-5-9(12)6-4-8/h3-7,10-13H,1-2H3

> <PUBCHEM_IUPAC_INCHIKEY>
OXFGTKPPFSCSMA-UHFFFAOYSA-N

> <PUBCHEM_XLOGP3>
0.6

> <PUBCHEM_EXACT_MASS>
181.110279

> <PUBCHEM_MOLECULAR_FORMULA>
C10H15NO2

> <PUBCHEM_MOLECULAR_WEIGHT>
181.2316

> <PUBCHEM_OPENEYE_CAN_SMILES>
CC(C(C1=CC=C(C=C1)O)O)NC

> <PUBCHEM_OPENEYE_ISO_SMILES>
CC(C(C1=CC=C(C=C1)O)O)NC

> <PUBCHEM_CACTVS_TPSA>
52.5

> <PUBCHEM_MONOISOTOPIC_WEIGHT>
181.110279

> <PUBCHEM_TOTAL_CHARGE>
0

> <PUBCHEM_HEAVY_ATOM_COUNT>
13

> <PUBCHEM_ATOM_DEF_STEREO_COUNT>
0

> <PUBCHEM_ATOM_UDEF_STEREO_COUNT>
2

> <PUBCHEM_BOND_DEF_STEREO_COUNT>
0

> <PUBCHEM_BOND_UDEF_STEREO_COUNT>
0

> <PUBCHEM_ISOTOPIC_ATOM_COUNT>
0

> <PUBCHEM_COMPONENT_COUNT>
1

> <PUBCHEM_CACTVS_TAUTO_COUNT>
2

> <PUBCHEM_COORDINATE_TYPE>
1
5
255

> <PUBCHEM_BONDANNOTATIONS>
11  13  8
12  13  8
4  14  3
5  15  3
6  8  8
6  9  8
8  11  8
9  12  8

> <DRUG_ID>
w255

> <DRUG_NAME>
Suprifen

$$$$
51348
  CDK     0927151942
null
 47 48  0  0  0  0  0  0  0  0999 V2000
    2.0000   -4.7500    0.0000 Cl  0  0  0  0  0  0  0  0  0  0  0  0
    5.4641    1.2500    0.0000 O   0  0  0  0  0  0  0  0  0  0  0  0
    7.1962    3.2500    0.0000 O   0  0  0  0  0  0  0  0  0  0  0  0
    8.0622    1.7500    0.0000 O   0  0  0  0  0  0  0  0  0  0  0  0
    6.3301    1.7500    0.0000 C   0  0  3  0  0  0  0  0  0  0  0  0
    5.8301    2.6160    0.0000 C   0  0  0  0  0  0  0  0  0  0  0  0
    6.8301    0.8840    0.0000 C   0  0  0  0  0  0  0  0  0  0  0  0
    7.1962    2.2500    0.0000 C   0  0  0  0  0  0  0  0  0  0  0  0
    4.8301    2.6160    0.0000 C   0  0  0  0  0  0  0  0  0  0  0  0
    5.4641    0.2500    0.0000 C   0  0  0  0  0  0  0  0  0  0  0  0
    5.4641   -1.7500    0.0000 C   0  0  0  0  0  0  0  0  0  0  0  0
    5.4641   -2.7500    0.0000 C   0  0  0  0  0  0  0  0  0  0  0  0
    4.5981   -0.2500    0.0000 C   0  0  0  0  0  0  0  0  0  0  0  0
    6.3301   -0.2500    0.0000 C   0  0  0  0  0  0  0  0  0  0  0  0
    4.5981   -1.2500    0.0000 C   0  0  0  0  0  0  0  0  0  0  0  0
    6.3301   -1.2500    0.0000 C   0  0  0  0  0  0  0  0  0  0  0  0
    4.5981   -3.2500    0.0000 C   0  0  0  0  0  0  0  0  0  0  0  0
    8.0622    3.7500    0.0000 C   0  0  0  0  0  0  0  0  0  0  0  0
    3.7320   -2.7500    0.0000 C   0  0  0  0  0  0  0  0  0  0  0  0
    4.5981   -4.2500    0.0000 C   0  0  0  0  0  0  0  0  0  0  0  0
    8.0622    4.7500    0.0000 C   0  0  0  0  0  0  0  0  0  0  0  0
    2.8660   -3.2500    0.0000 C   0  0  0  0  0  0  0  0  0  0  0  0
    3.7320   -4.7500    0.0000 C   0  0  0  0  0  0  0  0  0  0  0  0
    2.8660   -4.2500    0.0000 C   0  0  0  0  0  0  0  0  0  0  0  0
    6.4127    2.8281    0.0000 H   0  0  0  0  0  0  0  0  0  0  0  0
    5.7225    3.2266    0.0000 H   0  0  0  0  0  0  0  0  0  0  0  0
    6.2932    0.5740    0.0000 H   0  0  0  0  0  0  0  0  0  0  0  0
    7.1401    0.3470    0.0000 H   0  0  0  0  0  0  0  0  0  0  0  0
    7.3671    1.1940    0.0000 H   0  0  0  0  0  0  0  0  0  0  0  0
    4.8301    3.2360    0.0000 H   0  0  0  0  0  0  0  0  0  0  0  0
    4.2101    2.6160    0.0000 H   0  0  0  0  0  0  0  0  0  0  0  0
    4.8301    1.9960    0.0000 H   0  0  0  0  0  0  0  0  0  0  0  0
    5.6762   -3.3326    0.0000 H   0  0  0  0  0  0  0  0  0  0  0  0
    6.0747   -2.6423    0.0000 H   0  0  0  0  0  0  0  0  0  0  0  0
    4.0611    0.0600    0.0000 H   0  0  0  0  0  0  0  0  0  0  0  0
    6.8671    0.0600    0.0000 H   0  0  0  0  0  0  0  0  0  0  0  0
    4.0611   -1.5600    0.0000 H   0  0  0  0  0  0  0  0  0  0  0  0
    6.8671   -1.5600    0.0000 H   0  0  0  0  0  0  0  0  0  0  0  0
    8.2742    3.1674    0.0000 H   0  0  0  0  0  0  0  0  0  0  0  0
    8.6728    3.8577    0.0000 H   0  0  0  0  0  0  0  0  0  0  0  0
    3.7320   -2.1300    0.0000 H   0  0  0  0  0  0  0  0  0  0  0  0
    5.1350   -4.5600    0.0000 H   0  0  0  0  0  0  0  0  0  0  0  0
    8.6822    4.7500    0.0000 H   0  0  0  0  0  0  0  0  0  0  0  0
    8.0622    5.3700    0.0000 H   0  0  0  0  0  0  0  0  0  0  0  0
    7.4422    4.7500    0.0000 H   0  0  0  0  0  0  0  0  0  0  0  0
    2.3291   -2.9400    0.0000 H   0  0  0  0  0  0  0  0  0  0  0  0
    3.7320   -5.3700    0.0000 H   0  0  0  0  0  0  0  0  0  0  0  0
  1 24  1  0  0  0  0 
  2  5  1  0  0  0  0 
  2 10  1  0  0  0  0 
  3  8  1  0  0  0  0 
  3 18  1  0  0  0  0 
  4  8  2  0  0  0  0 
  5  6  1  0  0  0  0 
  5  7  1  0  0  0  0 
  5  8  1  0  0  0  0 
  6  9  1  0  0  0  0 
  6 25  1  0  0  0  0 
  6 26  1  0  0  0  0 
  7 27  1  0  0  0  0 
  7 28  1  0  0  0  0 
  7 29  1  0  0  0  0 
  9 30  1  0  0  0  0 
  9 31  1  0  0  0  0 
  9 32  1  0  0  0  0 
 10 13  2  0  0  0  0 
 10 14  1  0  0  0  0 
 11 12  1  0  0  0  0 
 11 15  2  0  0  0  0 
 11 16  1  0  0  0  0 
 12 17  1  0  0  0  0 
 12 33  1  0  0  0  0 
 12 34  1  0  0  0  0 
 13 15  1  0  0  0  0 
 13 35  1  0  0  0  0 
 14 16  2  0  0  0  0 
 14 36  1  0  0  0  0 
 15 37  1  0  0  0  0 
 16 38  1  0  0  0  0 
 17 19  2  0  0  0  0 
 17 20  1  0  0  0  0 
 18 21  1  0  0  0  0 
 18 39  1  0  0  0  0 
 18 40  1  0  0  0  0 
 19 22  1  0  0  0  0 
 19 41  1  0  0  0  0 
 20 23  2  0  0  0  0 
 20 42  1  0  0  0  0 
 21 43  1  0  0  0  0 
 21 44  1  0  0  0  0 
 21 45  1  0  0  0  0 
 22 24  2  0  0  0  0 
 22 46  1  0  0  0  0 
 23 24  1  0  0  0  0 
 23 47  1  0  0  0  0 
M  END
> <cdk:Title>
51348

> <cdk:Remark>
null

> <PUBCHEM_COMPOUND_CID>
51348

> <PUBCHEM_COMPOUND_CANONICALIZED>
1

> <PUBCHEM_CACTVS_COMPLEXITY>
384

> <PUBCHEM_CACTVS_HBOND_ACCEPTOR>
3

> <PUBCHEM_CACTVS_HBOND_DONOR>
0

> <PUBCHEM_CACTVS_ROTATABLE_BOND>
8

> <PUBCHEM_CACTVS_SUBSKEYS>
AAADceB4MAAEAAAAAAAAAAAAAAAAAAAAAAAwYAAAAAAAAAABQAAAGgIAAAAADEagmCIyDoAABACIAiDSCAICCAAgJQAIiAFGCogNJjKFMx6COCCkwBEKqAeAwOAOJAAAAAAAAABIAAAAAAAAAAAAAAAAAA==

> <PUBCHEM_IUPAC_OPENEYE_NAME>
ethyl 2-[4-[(4-chlorophenyl)methyl]phenoxy]-2-methyl-butanoate

> <PUBCHEM_IUPAC_CAS_NAME>
2-[4-[(4-chlorophenyl)methyl]phenoxy]-2-methylbutanoic acid ethyl ester

> <PUBCHEM_IUPAC_NAME>
ethyl 2-[4-[(4-chlorophenyl)methyl]phenoxy]-2-methylbutanoate

> <PUBCHEM_IUPAC_SYSTEMATIC_NAME>
ethyl 2-[4-[(4-chlorophenyl)methyl]phenoxy]-2-methyl-butanoate

> <PUBCHEM_IUPAC_TRADITIONAL_NAME>
2-[4-(4-chlorobenzyl)phenoxy]-2-methyl-butyric acid ethyl ester

> <PUBCHEM_IUPAC_INCHI>
InChI=1S/C20H23ClO3/c1-4-20(3,19(22)23-5-2)24-18-12-8-16(9-13-18)14-15-6-10-17(21)11-7-15/h6-13H,4-5,14H2,1-3H3

> <PUBCHEM_IUPAC_INCHIKEY>
YWQGBCXVCXMSLJ-UHFFFAOYSA-N

> <PUBCHEM_XLOGP3_AA>
5.8

> <PUBCHEM_EXACT_MASS>
346.133572

> <PUBCHEM_MOLECULAR_FORMULA>
C20H23ClO3

> <PUBCHEM_MOLECULAR_WEIGHT>
346.84782

> <PUBCHEM_OPENEYE_CAN_SMILES>
CCC(C)(C(=O)OCC)OC1=CC=C(C=C1)CC2=CC=C(C=C2)Cl

> <PUBCHEM_OPENEYE_ISO_SMILES>
CCC(C)(C(=O)OCC)OC1=CC=C(C=C1)CC2=CC=C(C=C2)Cl

> <PUBCHEM_CACTVS_TPSA>
35.5

> <PUBCHEM_MONOISOTOPIC_WEIGHT>
346.133572

> <PUBCHEM_TOTAL_CHARGE>
0

> <PUBCHEM_HEAVY_ATOM_COUNT>
24

> <PUBCHEM_ATOM_DEF_STEREO_COUNT>
0

> <PUBCHEM_ATOM_UDEF_STEREO_COUNT>
1

> <PUBCHEM_BOND_DEF_STEREO_COUNT>
0

> <PUBCHEM_BOND_UDEF_STEREO_COUNT>
0

> <PUBCHEM_ISOTOPIC_ATOM_COUNT>
0

> <PUBCHEM_COMPONENT_COUNT>
1

> <PUBCHEM_CACTVS_TAUTO_COUNT>
1

> <PUBCHEM_COORDINATE_TYPE>
1
5
255

> <PUBCHEM_BONDANNOTATIONS>
10  13  8
10  14  8
11  15  8
11  16  8
13  15  8
14  16  8
17  19  8
17  20  8
19  22  8
20  23  8
22  24  8
23  24  8
5  8  3

> <DRUG_ID>
w256

> <DRUG_NAME>
Beclobrate

$$$$
14373
  CDK     0927151942
null
 41 42  0  0  0  0  0  0  0  0999 V2000
    2.0000    0.9806    0.0000 O   0  0  0  0  0  0  0  0  0  0  0  0
    3.7320    1.9806    0.0000 N   0  0  0  0  0  0  0  0  0  0  0  0
    3.7320    0.9806    0.0000 C   0  0  3  0  0  0  0  0  0  0  0  0
    4.5411    2.5684    0.0000 C   0  0  0  0  0  0  0  0  0  0  0  0
    2.9230    2.5684    0.0000 C   0  0  0  0  0  0  0  0  0  0  0  0
    3.2320    3.5194    0.0000 C   0  0  0  0  0  0  0  0  0  0  0  0
    4.2320    3.5194    0.0000 C   0  0  0  0  0  0  0  0  0  0  0  0
    4.5981    0.4806    0.0000 C   0  0  0  0  0  0  0  0  0  0  0  0
    2.8660    0.4806    0.0000 C   0  0  0  0  0  0  0  0  0  0  0  0
    5.4641    0.9806    0.0000 C   0  0  0  0  0  0  0  0  0  0  0  0
    2.8660   -0.5194    0.0000 C   0  0  0  0  0  0  0  0  0  0  0  0
    6.3301    0.4806    0.0000 C   0  0  0  0  0  0  0  0  0  0  0  0
    2.0000   -1.0194    0.0000 C   0  0  0  0  0  0  0  0  0  0  0  0
    3.7320   -1.0194    0.0000 C   0  0  0  0  0  0  0  0  0  0  0  0
    2.0000   -2.0194    0.0000 C   0  0  0  0  0  0  0  0  0  0  0  0
    3.7320   -2.0194    0.0000 C   0  0  0  0  0  0  0  0  0  0  0  0
    2.8660   -2.5194    0.0000 C   0  0  0  0  0  0  0  0  0  0  0  0
    2.8660   -3.5194    0.0000 C   0  0  0  0  0  0  0  0  0  0  0  0
    4.4682    1.4056    0.0000 H   0  0  0  0  0  0  0  0  0  0  0  0
    2.3566    2.8205    0.0000 H   0  0  0  0  0  0  0  0  0  0  0  0
    2.6130    2.0314    0.0000 H   0  0  0  0  0  0  0  0  0  0  0  0
    4.8511    2.0314    0.0000 H   0  0  0  0  0  0  0  0  0  0  0  0
    5.1075    2.8205    0.0000 H   0  0  0  0  0  0  0  0  0  0  0  0
    4.8385    3.6483    0.0000 H   0  0  0  0  0  0  0  0  0  0  0  0
    4.1672    4.1360    0.0000 H   0  0  0  0  0  0  0  0  0  0  0  0
    3.2969    4.1360    0.0000 H   0  0  0  0  0  0  0  0  0  0  0  0
    2.6256    3.6483    0.0000 H   0  0  0  0  0  0  0  0  0  0  0  0
    4.1996    0.0056    0.0000 H   0  0  0  0  0  0  0  0  0  0  0  0
    4.9966    0.0056    0.0000 H   0  0  0  0  0  0  0  0  0  0  0  0
    5.8626    1.4555    0.0000 H   0  0  0  0  0  0  0  0  0  0  0  0
    5.0656    1.4555    0.0000 H   0  0  0  0  0  0  0  0  0  0  0  0
    6.0201   -0.0564    0.0000 H   0  0  0  0  0  0  0  0  0  0  0  0
    6.8671    0.1706    0.0000 H   0  0  0  0  0  0  0  0  0  0  0  0
    6.6401    1.0175    0.0000 H   0  0  0  0  0  0  0  0  0  0  0  0
    1.4631   -0.7094    0.0000 H   0  0  0  0  0  0  0  0  0  0  0  0
    4.2690   -0.7094    0.0000 H   0  0  0  0  0  0  0  0  0  0  0  0
    1.4631   -2.3294    0.0000 H   0  0  0  0  0  0  0  0  0  0  0  0
    4.2690   -2.3294    0.0000 H   0  0  0  0  0  0  0  0  0  0  0  0
    2.2460   -3.5194    0.0000 H   0  0  0  0  0  0  0  0  0  0  0  0
    2.8660   -4.1394    0.0000 H   0  0  0  0  0  0  0  0  0  0  0  0
    3.4860   -3.5194    0.0000 H   0  0  0  0  0  0  0  0  0  0  0  0
  1  9  2  0  0  0  0 
  2  3  1  0  0  0  0 
  2  4  1  0  0  0  0 
  2  5  1  0  0  0  0 
  3  8  1  0  0  0  0 
  3  9  1  0  0  0  0 
  3 19  1  0  0  0  0 
  4  7  1  0  0  0  0 
  4 22  1  0  0  0  0 
  4 23  1  0  0  0  0 
  5  6  1  0  0  0  0 
  5 20  1  0  0  0  0 
  5 21  1  0  0  0  0 
  6  7  1  0  0  0  0 
  6 26  1  0  0  0  0 
  6 27  1  0  0  0  0 
  7 24  1  0  0  0  0 
  7 25  1  0  0  0  0 
  8 10  1  0  0  0  0 
  8 28  1  0  0  0  0 
  8 29  1  0  0  0  0 
  9 11  1  0  0  0  0 
 10 12  1  0  0  0  0 
 10 30  1  0  0  0  0 
 10 31  1  0  0  0  0 
 11 13  2  0  0  0  0 
 11 14  1  0  0  0  0 
 12 32  1  0  0  0  0 
 12 33  1  0  0  0  0 
 12 34  1  0  0  0  0 
 13 15  1  0  0  0  0 
 13 35  1  0  0  0  0 
 14 16  2  0  0  0  0 
 14 36  1  0  0  0  0 
 15 17  2  0  0  0  0 
 15 37  1  0  0  0  0 
 16 17  1  0  0  0  0 
 16 38  1  0  0  0  0 
 17 18  1  0  0  0  0 
 18 39  1  0  0  0  0 
 18 40  1  0  0  0  0 
 18 41  1  0  0  0  0 
M  END
> <cdk:Title>
14373

> <cdk:Remark>
null

> <PUBCHEM_COMPOUND_CID>
14373

> <PUBCHEM_COMPOUND_CANONICALIZED>
1

> <PUBCHEM_CACTVS_COMPLEXITY>
262

> <PUBCHEM_CACTVS_HBOND_ACCEPTOR>
2

> <PUBCHEM_CACTVS_HBOND_DONOR>
0

> <PUBCHEM_CACTVS_ROTATABLE_BOND>
5

> <PUBCHEM_CACTVS_SUBSKEYS>
AAADceB6IAAAAAAAAAAAAAAAAAAAAWAAAAAwAAAAAAAAAAABAAAAHgAAAAAADCzBmAQyAIMAAACIAqBSAAACAAAkAAAIiAGIAMgIIDKAlTGEIQAggACIiYcYiMCOQAAAAAAAAACAAAAAAAAAAAAAAAAAAA==

> <PUBCHEM_IUPAC_OPENEYE_NAME>
1-(p-tolyl)-2-pyrrolidin-1-yl-pentan-1-one

> <PUBCHEM_IUPAC_CAS_NAME>
1-(4-methylphenyl)-2-(1-pyrrolidinyl)-1-pentanone

> <PUBCHEM_IUPAC_NAME>
1-(4-methylphenyl)-2-pyrrolidin-1-ylpentan-1-one

> <PUBCHEM_IUPAC_SYSTEMATIC_NAME>
1-(4-methylphenyl)-2-pyrrolidin-1-yl-pentan-1-one

> <PUBCHEM_IUPAC_TRADITIONAL_NAME>
1-(p-tolyl)-2-pyrrolidino-pentan-1-one

> <PUBCHEM_IUPAC_INCHI>
InChI=1S/C16H23NO/c1-3-6-15(17-11-4-5-12-17)16(18)14-9-7-13(2)8-10-14/h7-10,15H,3-6,11-12H2,1-2H3

> <PUBCHEM_IUPAC_INCHIKEY>
SWUVZKWCOBGPTH-UHFFFAOYSA-N

> <PUBCHEM_XLOGP3_AA>
3.8

> <PUBCHEM_EXACT_MASS>
245.177964

> <PUBCHEM_MOLECULAR_FORMULA>
C16H23NO

> <PUBCHEM_MOLECULAR_WEIGHT>
245.35992

> <PUBCHEM_OPENEYE_CAN_SMILES>
CCCC(C(=O)C1=CC=C(C=C1)C)N2CCCC2

> <PUBCHEM_OPENEYE_ISO_SMILES>
CCCC(C(=O)C1=CC=C(C=C1)C)N2CCCC2

> <PUBCHEM_CACTVS_TPSA>
20.3

> <PUBCHEM_MONOISOTOPIC_WEIGHT>
245.177964

> <PUBCHEM_TOTAL_CHARGE>
0

> <PUBCHEM_HEAVY_ATOM_COUNT>
18

> <PUBCHEM_ATOM_DEF_STEREO_COUNT>
0

> <PUBCHEM_ATOM_UDEF_STEREO_COUNT>
1

> <PUBCHEM_BOND_DEF_STEREO_COUNT>
0

> <PUBCHEM_BOND_UDEF_STEREO_COUNT>
0

> <PUBCHEM_ISOTOPIC_ATOM_COUNT>
0

> <PUBCHEM_COMPONENT_COUNT>
1

> <PUBCHEM_CACTVS_TAUTO_COUNT>
7

> <PUBCHEM_COORDINATE_TYPE>
1
5
255

> <PUBCHEM_BONDANNOTATIONS>
11  13  8
11  14  8
13  15  8
14  16  8
15  17  8
16  17  8
3  19  3

> <DRUG_ID>
w257

> <DRUG_NAME>
Pyrovalerone

$$$$
10307
  CDK     0927151942
null
 32 33  0  0  0  0  0  0  0  0999 V2000
    3.7320   -2.2673    0.0000 Cl  0  0  0  0  0  0  0  0  0  0  0  0
    2.0000    0.7327    0.0000 Cl  0  0  0  0  0  0  0  0  0  0  0  0
    4.5981    0.2327    0.0000 N   0  0  0  0  0  0  0  0  0  0  0  0
    5.4641    0.7327    0.0000 C   0  0  0  0  0  0  0  0  0  0  0  0
    3.7320    0.7327    0.0000 C   0  0  0  0  0  0  0  0  0  0  0  0
    4.5981   -0.7673    0.0000 C   0  0  0  0  0  0  0  0  0  0  0  0
    7.1962    0.7327    0.0000 C   0  0  0  0  0  0  0  0  0  0  0  0
    6.3301    0.2327    0.0000 C   0  0  0  0  0  0  0  0  0  0  0  0
    7.1962    1.7327    0.0000 C   0  0  0  0  0  0  0  0  0  0  0  0
    5.4641    1.7327    0.0000 C   0  0  0  0  0  0  0  0  0  0  0  0
    6.3301    2.2327    0.0000 C   0  0  0  0  0  0  0  0  0  0  0  0
    2.8660    0.2327    0.0000 C   0  0  0  0  0  0  0  0  0  0  0  0
    3.7320   -1.2673    0.0000 C   0  0  0  0  0  0  0  0  0  0  0  0
    8.0901    0.1980    0.0000 C   0  0  0  0  0  0  0  0  0  0  0  0
    8.0901    2.2673    0.0000 C   0  0  0  0  0  0  0  0  0  0  0  0
    8.9962    0.7119    0.0000 C   0  0  0  0  0  0  0  0  0  0  0  0
    8.9962    1.7535    0.0000 C   0  0  0  0  0  0  0  0  0  0  0  0
    4.1306    1.2076    0.0000 H   0  0  0  0  0  0  0  0  0  0  0  0
    3.3335    1.2076    0.0000 H   0  0  0  0  0  0  0  0  0  0  0  0
    4.8101   -1.3499    0.0000 H   0  0  0  0  0  0  0  0  0  0  0  0
    5.2087   -0.6597    0.0000 H   0  0  0  0  0  0  0  0  0  0  0  0
    6.3301   -0.3873    0.0000 H   0  0  0  0  0  0  0  0  0  0  0  0
    4.9272    2.0427    0.0000 H   0  0  0  0  0  0  0  0  0  0  0  0
    6.3301    2.8527    0.0000 H   0  0  0  0  0  0  0  0  0  0  0  0
    2.4675   -0.2423    0.0000 H   0  0  0  0  0  0  0  0  0  0  0  0
    3.2646   -0.2423    0.0000 H   0  0  0  0  0  0  0  0  0  0  0  0
    3.5200   -0.6847    0.0000 H   0  0  0  0  0  0  0  0  0  0  0  0
    3.1215   -1.3750    0.0000 H   0  0  0  0  0  0  0  0  0  0  0  0
    8.0829   -0.4220    0.0000 H   0  0  0  0  0  0  0  0  0  0  0  0
    8.0829    2.8873    0.0000 H   0  0  0  0  0  0  0  0  0  0  0  0
    9.5319    0.3998    0.0000 H   0  0  0  0  0  0  0  0  0  0  0  0
    9.5319    2.0656    0.0000 H   0  0  0  0  0  0  0  0  0  0  0  0
  1 13  1  0  0  0  0 
  2 12  1  0  0  0  0 
  3  4  1  0  0  0  0 
  3  5  1  0  0  0  0 
  3  6  1  0  0  0  0 
  4  8  2  0  0  0  0 
  4 10  1  0  0  0  0 
  5 12  1  0  0  0  0 
  5 18  1  0  0  0  0 
  5 19  1  0  0  0  0 
  6 13  1  0  0  0  0 
  6 20  1  0  0  0  0 
  6 21  1  0  0  0  0 
  7  8  1  0  0  0  0 
  7  9  1  0  0  0  0 
  7 14  2  0  0  0  0 
  8 22  1  0  0  0  0 
  9 11  1  0  0  0  0 
  9 15  2  0  0  0  0 
 10 11  2  0  0  0  0 
 10 23  1  0  0  0  0 
 11 24  1  0  0  0  0 
 12 25  1  0  0  0  0 
 12 26  1  0  0  0  0 
 13 27  1  0  0  0  0 
 13 28  1  0  0  0  0 
 14 16  1  0  0  0  0 
 14 29  1  0  0  0  0 
 15 17  1  0  0  0  0 
 15 30  1  0  0  0  0 
 16 17  2  0  0  0  0 
 16 31  1  0  0  0  0 
 17 32  1  0  0  0  0 
M  END
> <cdk:Title>
10307

> <cdk:Remark>
null

> <PUBCHEM_COMPOUND_CID>
10307

> <PUBCHEM_COMPOUND_CANONICALIZED>
1

> <PUBCHEM_CACTVS_COMPLEXITY>
216

> <PUBCHEM_CACTVS_HBOND_ACCEPTOR>
1

> <PUBCHEM_CACTVS_HBOND_DONOR>
0

> <PUBCHEM_CACTVS_ROTATABLE_BOND>
5

> <PUBCHEM_CACTVS_SUBSKEYS>
AAADccByAAAGAAAAAAAAAAAAAAAAAAAAAAAwYAAAAAAAAADBUAAAHAIAAAAADAvBGEQwwMMAAACAAiRCQACCAAAhAgAIiAAIZIgIICLAkZHEIAhggADIyAcQgIAOiAAAQAAQAAAQAACAACAAAAAAAAAAAA==

> <PUBCHEM_IUPAC_OPENEYE_NAME>
N,N-bis(2-chloroethyl)naphthalen-2-amine

> <PUBCHEM_IUPAC_CAS_NAME>
N,N-bis(2-chloroethyl)-2-naphthalenamine

> <PUBCHEM_IUPAC_NAME>
N,N-bis(2-chloroethyl)naphthalen-2-amine

> <PUBCHEM_IUPAC_SYSTEMATIC_NAME>
N,N-bis(2-chloroethyl)naphthalen-2-amine

> <PUBCHEM_IUPAC_TRADITIONAL_NAME>
bis(2-chloroethyl)-(2-naphthyl)amine

> <PUBCHEM_IUPAC_INCHI>
InChI=1S/C14H15Cl2N/c15-7-9-17(10-8-16)14-6-5-12-3-1-2-4-13(12)11-14/h1-6,11H,7-10H2

> <PUBCHEM_IUPAC_INCHIKEY>
XCDXSSFOJZZGQC-UHFFFAOYSA-N

> <PUBCHEM_XLOGP3_AA>
4.5

> <PUBCHEM_EXACT_MASS>
267.058155

> <PUBCHEM_MOLECULAR_FORMULA>
C14H15Cl2N

> <PUBCHEM_MOLECULAR_WEIGHT>
268.1816

> <PUBCHEM_OPENEYE_CAN_SMILES>
C1=CC=C2C=C(C=CC2=C1)N(CCCl)CCCl

> <PUBCHEM_OPENEYE_ISO_SMILES>
C1=CC=C2C=C(C=CC2=C1)N(CCCl)CCCl

> <PUBCHEM_CACTVS_TPSA>
3.2

> <PUBCHEM_MONOISOTOPIC_WEIGHT>
267.058155

> <PUBCHEM_TOTAL_CHARGE>
0

> <PUBCHEM_HEAVY_ATOM_COUNT>
17

> <PUBCHEM_ATOM_DEF_STEREO_COUNT>
0

> <PUBCHEM_ATOM_UDEF_STEREO_COUNT>
0

> <PUBCHEM_BOND_DEF_STEREO_COUNT>
0

> <PUBCHEM_BOND_UDEF_STEREO_COUNT>
0

> <PUBCHEM_ISOTOPIC_ATOM_COUNT>
0

> <PUBCHEM_COMPONENT_COUNT>
1

> <PUBCHEM_CACTVS_TAUTO_COUNT>
1

> <PUBCHEM_COORDINATE_TYPE>
1
5
255

> <PUBCHEM_BONDANNOTATIONS>
10  11  8
14  16  8
15  17  8
16  17  8
4  10  8
4  8  8
7  14  8
7  8  8
7  9  8
9  11  8
9  15  8

> <DRUG_ID>
w259

> <DRUG_NAME>
Chlornaphazine

$$$$
6237
  CDK     0927151942
null
 34 36  0  0  0  0  0  0  0  0999 V2000
    7.5673    2.5344    0.0000 I   0  0  0  0  0  0  0  0  0  0  0  0
    8.2816   -0.8553    0.0000 I   0  0  0  0  0  0  0  0  0  0  0  0
    4.6783   -2.3391    0.0000 O   0  0  0  0  0  0  0  0  0  0  0  0
    4.3211    0.9652    0.0000 O   0  0  0  0  0  0  0  0  0  0  0  0
    8.9030    1.0458    0.0000 O   0  0  0  0  0  0  0  0  0  0  0  0
    4.6783   -0.7296    0.0000 C   0  0  0  0  0  0  0  0  0  0  0  0
    3.7320   -1.0344    0.0000 C   0  0  0  0  0  0  0  0  0  0  0  0
    5.2619   -1.5344    0.0000 C   0  0  0  0  0  0  0  0  0  0  0  0
    3.7320   -2.0344    0.0000 C   0  0  0  0  0  0  0  0  0  0  0  0
    6.2619   -1.5344    0.0000 C   0  0  0  0  0  0  0  0  0  0  0  0
    4.9889    0.2209    0.0000 C   0  0  0  0  0  0  0  0  0  0  0  0
    2.8660   -0.5344    0.0000 C   0  0  0  0  0  0  0  0  0  0  0  0
    5.9674    0.4271    0.0000 C   0  0  0  0  0  0  0  0  0  0  0  0
    2.8660   -2.5344    0.0000 C   0  0  0  0  0  0  0  0  0  0  0  0
    6.7619   -2.4004    0.0000 C   0  0  0  0  0  0  0  0  0  0  0  0
    2.0000   -1.0344    0.0000 C   0  0  0  0  0  0  0  0  0  0  0  0
    2.0000   -2.0344    0.0000 C   0  0  0  0  0  0  0  0  0  0  0  0
    6.6353   -0.3172    0.0000 C   0  0  0  0  0  0  0  0  0  0  0  0
    6.2781    1.3776    0.0000 C   0  0  0  0  0  0  0  0  0  0  0  0
    7.2566    1.5838    0.0000 C   0  0  0  0  0  0  0  0  0  0  0  0
    7.6138   -0.1110    0.0000 C   0  0  0  0  0  0  0  0  0  0  0  0
    7.9244    0.8395    0.0000 C   0  0  0  0  0  0  0  0  0  0  0  0
    6.8445   -1.3223    0.0000 H   0  0  0  0  0  0  0  0  0  0  0  0
    6.1542   -0.9238    0.0000 H   0  0  0  0  0  0  0  0  0  0  0  0
    2.8660    0.0856    0.0000 H   0  0  0  0  0  0  0  0  0  0  0  0
    2.8660   -3.1544    0.0000 H   0  0  0  0  0  0  0  0  0  0  0  0
    6.2249   -2.7104    0.0000 H   0  0  0  0  0  0  0  0  0  0  0  0
    7.0719   -2.9373    0.0000 H   0  0  0  0  0  0  0  0  0  0  0  0
    7.2988   -2.0904    0.0000 H   0  0  0  0  0  0  0  0  0  0  0  0
    1.4631   -0.7244    0.0000 H   0  0  0  0  0  0  0  0  0  0  0  0
    1.4631   -2.3444    0.0000 H   0  0  0  0  0  0  0  0  0  0  0  0
    6.4427   -0.9065    0.0000 H   0  0  0  0  0  0  0  0  0  0  0  0
    5.8640    1.8391    0.0000 H   0  0  0  0  0  0  0  0  0  0  0  0
    9.0956    1.6351    0.0000 H   0  0  0  0  0  0  0  0  0  0  0  0
  1 20  1  0  0  0  0 
  2 21  1  0  0  0  0 
  3  8  1  0  0  0  0 
  3  9  1  0  0  0  0 
  4 11  2  0  0  0  0 
  5 22  1  0  0  0  0 
  5 34  1  0  0  0  0 
  6  7  1  0  0  0  0 
  6  8  2  0  0  0  0 
  6 11  1  0  0  0  0 
  7  9  1  0  0  0  0 
  7 12  2  0  0  0  0 
  8 10  1  0  0  0  0 
  9 14  2  0  0  0  0 
 10 15  1  0  0  0  0 
 10 23  1  0  0  0  0 
 10 24  1  0  0  0  0 
 11 13  1  0  0  0  0 
 12 16  1  0  0  0  0 
 12 25  1  0  0  0  0 
 13 18  2  0  0  0  0 
 13 19  1  0  0  0  0 
 14 17  1  0  0  0  0 
 14 26  1  0  0  0  0 
 15 27  1  0  0  0  0 
 15 28  1  0  0  0  0 
 15 29  1  0  0  0  0 
 16 17  2  0  0  0  0 
 16 30  1  0  0  0  0 
 17 31  1  0  0  0  0 
 18 21  1  0  0  0  0 
 18 32  1  0  0  0  0 
 19 20  2  0  0  0  0 
 19 33  1  0  0  0  0 
 20 22  1  0  0  0  0 
 21 22  2  0  0  0  0 
M  END
> <cdk:Title>
6237

> <cdk:Remark>
null

> <PUBCHEM_COMPOUND_CID>
6237

> <PUBCHEM_COMPOUND_CANONICALIZED>
1

> <PUBCHEM_CACTVS_COMPLEXITY>
405

> <PUBCHEM_CACTVS_HBOND_ACCEPTOR>
3

> <PUBCHEM_CACTVS_HBOND_DONOR>
1

> <PUBCHEM_CACTVS_ROTATABLE_BOND>
3

> <PUBCHEM_CACTVS_SUBSKEYS>
AAADccB4MAAAAwAAAAAAAAAAAAAAASAAAAAwYAAAAAAAAEgB9AAAGgAgCAAADASCmAAyBsAABkCIAqBSAAACCAAkIAAIiAEGCMgMJjaONRqCeWCk4BEIuYeLzPDOoAAAAAAIAABAAAAAABAAAAAAAAAAAA==

> <PUBCHEM_IUPAC_OPENEYE_NAME>
(2-ethylbenzofuran-3-yl)-(4-hydroxy-3,5-diiodo-phenyl)methanone

> <PUBCHEM_IUPAC_CAS_NAME>
(2-ethyl-3-benzofuranyl)-(4-hydroxy-3,5-diiodophenyl)methanone

> <PUBCHEM_IUPAC_NAME>
(2-ethyl-1-benzofuran-3-yl)-(4-hydroxy-3,5-diiodophenyl)methanone

> <PUBCHEM_IUPAC_SYSTEMATIC_NAME>
[3,5-bis(iodanyl)-4-oxidanyl-phenyl]-(2-ethyl-1-benzofuran-3-yl)methanone

> <PUBCHEM_IUPAC_TRADITIONAL_NAME>
(2-ethylbenzofuran-3-yl)-(4-hydroxy-3,5-diiodo-phenyl)methanone

> <PUBCHEM_IUPAC_INCHI>
InChI=1S/C17H12I2O3/c1-2-13-15(10-5-3-4-6-14(10)22-13)16(20)9-7-11(18)17(21)12(19)8-9/h3-8,21H,2H2,1H3

> <PUBCHEM_IUPAC_INCHIKEY>
CZCHIEJNWPNBDE-UHFFFAOYSA-N

> <PUBCHEM_XLOGP3>
5.6

> <PUBCHEM_EXACT_MASS>
517.88759

> <PUBCHEM_MOLECULAR_FORMULA>
C17H12I2O3

> <PUBCHEM_MOLECULAR_WEIGHT>
518.08432

> <PUBCHEM_OPENEYE_CAN_SMILES>
CCC1=C(C2=CC=CC=C2O1)C(=O)C3=CC(=C(C(=C3)I)O)I

> <PUBCHEM_OPENEYE_ISO_SMILES>
CCC1=C(C2=CC=CC=C2O1)C(=O)C3=CC(=C(C(=C3)I)O)I

> <PUBCHEM_CACTVS_TPSA>
50.4

> <PUBCHEM_MONOISOTOPIC_WEIGHT>
517.88759

> <PUBCHEM_TOTAL_CHARGE>
0

> <PUBCHEM_HEAVY_ATOM_COUNT>
22

> <PUBCHEM_ATOM_DEF_STEREO_COUNT>
0

> <PUBCHEM_ATOM_UDEF_STEREO_COUNT>
0

> <PUBCHEM_BOND_DEF_STEREO_COUNT>
0

> <PUBCHEM_BOND_UDEF_STEREO_COUNT>
0

> <PUBCHEM_ISOTOPIC_ATOM_COUNT>
0

> <PUBCHEM_COMPONENT_COUNT>
1

> <PUBCHEM_CACTVS_TAUTO_COUNT>
4

> <PUBCHEM_COORDINATE_TYPE>
1
5
255

> <PUBCHEM_BONDANNOTATIONS>
12  16  8
13  18  8
13  19  8
14  17  8
16  17  8
18  21  8
19  20  8
20  22  8
21  22  8
3  8  8
3  9  8
6  7  8
6  8  8
7  12  8
7  9  8
9  14  8

> <DRUG_ID>
w26

> <DRUG_NAME>
Benziodarone

$$$$
9934
  CDK     0927151942
null
 15 15  0  0  0  0  0  0  0  0999 V2000
    2.3090    1.1191    0.0000 S   0  0  0  0  0  0  0  0  0  0  0  0
    5.3122    0.5282    0.0000 O   0  0  0  0  0  0  0  0  0  0  0  0
    4.7770   -1.1191    0.0000 O   0  0  0  0  0  0  0  0  0  0  0  0
    2.8090   -0.4197    0.0000 N   0  0  0  0  0  0  0  0  0  0  0  0
    3.6180    0.1681    0.0000 C   0  0  3  0  0  0  0  0  0  0  0  0
    3.3090    1.1191    0.0000 C   0  0  0  0  0  0  0  0  0  0  0  0
    2.0000    0.1681    0.0000 C   0  0  0  0  0  0  0  0  0  0  0  0
    4.5691   -0.1410    0.0000 C   0  0  0  0  0  0  0  0  0  0  0  0
    3.7510   -0.6715    0.0000 H   0  0  0  0  0  0  0  0  0  0  0  0
    3.9155    1.2480    0.0000 H   0  0  0  0  0  0  0  0  0  0  0  0
    3.2442    1.7357    0.0000 H   0  0  0  0  0  0  0  0  0  0  0  0
    2.8090   -1.0397    0.0000 H   0  0  0  0  0  0  0  0  0  0  0  0
    1.4336    0.4202    0.0000 H   0  0  0  0  0  0  0  0  0  0  0  0
    1.6900   -0.3689    0.0000 H   0  0  0  0  0  0  0  0  0  0  0  0
    5.9019    0.3366    0.0000 H   0  0  0  0  0  0  0  0  0  0  0  0
  1  6  1  0  0  0  0 
  1  7  1  0  0  0  0 
  2  8  1  0  0  0  0 
  2 15  1  0  0  0  0 
  3  8  2  0  0  0  0 
  4  5  1  0  0  0  0 
  4  7  1  0  0  0  0 
  4 12  1  0  0  0  0 
  5  6  1  0  0  0  0 
  5  8  1  0  0  0  0 
  5  9  1  0  0  0  0 
  6 10  1  0  0  0  0 
  6 11  1  0  0  0  0 
  7 13  1  0  0  0  0 
  7 14  1  0  0  0  0 
M  END
> <cdk:Title>
9934

> <cdk:Remark>
null

> <PUBCHEM_COMPOUND_CID>
9934

> <PUBCHEM_COMPOUND_CANONICALIZED>
1

> <PUBCHEM_CACTVS_COMPLEXITY>
106

> <PUBCHEM_CACTVS_HBOND_ACCEPTOR>
4

> <PUBCHEM_CACTVS_HBOND_DONOR>
2

> <PUBCHEM_CACTVS_ROTATABLE_BOND>
1

> <PUBCHEM_CACTVS_SUBSKEYS>
AAADcYBiMABAAAAAAAAAAAAAAAAAAWAAAAAAAAAAAAAAAAAAAAAAHgQQCAAACCjFwASACALAAggIAACQCAAAAABAABAAAIGIAAACAAAgACAAQAAAEAAQAAAAAAAAAAAAAAAAAAAAAAAAAAAAAAAAAAAAAA==

> <PUBCHEM_IUPAC_OPENEYE_NAME>
thiazolidine-4-carboxylic acid

> <PUBCHEM_IUPAC_CAS_NAME>
4-thiazolidinecarboxylic acid

> <PUBCHEM_IUPAC_NAME>
1,3-thiazolidine-4-carboxylic acid

> <PUBCHEM_IUPAC_SYSTEMATIC_NAME>
1,3-thiazolidine-4-carboxylic acid

> <PUBCHEM_IUPAC_TRADITIONAL_NAME>
thiazolidine-4-carboxylic acid

> <PUBCHEM_IUPAC_INCHI>
InChI=1S/C4H7NO2S/c6-4(7)3-1-8-2-5-3/h3,5H,1-2H2,(H,6,7)

> <PUBCHEM_IUPAC_INCHIKEY>
DZLNHFMRPBPULJ-UHFFFAOYSA-N

> <PUBCHEM_XLOGP3_AA>
-2.3

> <PUBCHEM_EXACT_MASS>
133.019749

> <PUBCHEM_MOLECULAR_FORMULA>
C4H7NO2S

> <PUBCHEM_MOLECULAR_WEIGHT>
133.16888

> <PUBCHEM_OPENEYE_CAN_SMILES>
C1C(NCS1)C(=O)O

> <PUBCHEM_OPENEYE_ISO_SMILES>
C1C(NCS1)C(=O)O

> <PUBCHEM_CACTVS_TPSA>
74.6

> <PUBCHEM_MONOISOTOPIC_WEIGHT>
133.019749

> <PUBCHEM_TOTAL_CHARGE>
0

> <PUBCHEM_HEAVY_ATOM_COUNT>
8

> <PUBCHEM_ATOM_DEF_STEREO_COUNT>
0

> <PUBCHEM_ATOM_UDEF_STEREO_COUNT>
1

> <PUBCHEM_BOND_DEF_STEREO_COUNT>
0

> <PUBCHEM_BOND_UDEF_STEREO_COUNT>
0

> <PUBCHEM_ISOTOPIC_ATOM_COUNT>
0

> <PUBCHEM_COMPONENT_COUNT>
1

> <PUBCHEM_CACTVS_TAUTO_COUNT>
1

> <PUBCHEM_COORDINATE_TYPE>
1
5
255

> <PUBCHEM_BONDANNOTATIONS>
5  9  3

> <DRUG_ID>
w260

> <DRUG_NAME>
Timonacic

$$$$
76000
  CDK     0927151942
null
 17 16  0  0  0  0  0  0  0  0999 V2000
    3.2320    0.8660    0.0000 I   0  0  0  0  0  0  0  0  0  0  0  0
    4.2320   -0.8660    0.0000 I   0  0  0  0  0  0  0  0  0  0  0  0
    3.7320    0.0000    0.0000 Sn  0  0  0  0  0  0  0  0  0  0  0  0
    4.5981    0.5000    0.0000 C   0  0  0  0  0  0  0  0  0  0  0  0
    2.8660   -0.5000    0.0000 C   0  0  0  0  0  0  0  0  0  0  0  0
    2.0000    0.0000    0.0000 C   0  0  0  0  0  0  0  0  0  0  0  0
    5.4641    0.0000    0.0000 C   0  0  0  0  0  0  0  0  0  0  0  0
    2.4675   -0.9749    0.0000 H   0  0  0  0  0  0  0  0  0  0  0  0
    3.2646   -0.9749    0.0000 H   0  0  0  0  0  0  0  0  0  0  0  0
    4.9966    0.9749    0.0000 H   0  0  0  0  0  0  0  0  0  0  0  0
    4.1996    0.9749    0.0000 H   0  0  0  0  0  0  0  0  0  0  0  0
    2.3100    0.5369    0.0000 H   0  0  0  0  0  0  0  0  0  0  0  0
    1.4631    0.3100    0.0000 H   0  0  0  0  0  0  0  0  0  0  0  0
    1.6900   -0.5369    0.0000 H   0  0  0  0  0  0  0  0  0  0  0  0
    5.1541   -0.5369    0.0000 H   0  0  0  0  0  0  0  0  0  0  0  0
    6.0010   -0.3100    0.0000 H   0  0  0  0  0  0  0  0  0  0  0  0
    5.7741    0.5369    0.0000 H   0  0  0  0  0  0  0  0  0  0  0  0
  1  3  1  0  0  0  0 
  2  3  1  0  0  0  0 
  3  4  1  0  0  0  0 
  3  5  1  0  0  0  0 
  4  7  1  0  0  0  0 
  4 10  1  0  0  0  0 
  4 11  1  0  0  0  0 
  5  6  1  0  0  0  0 
  5  8  1  0  0  0  0 
  5  9  1  0  0  0  0 
  6 12  1  0  0  0  0 
  6 13  1  0  0  0  0 
  6 14  1  0  0  0  0 
  7 15  1  0  0  0  0 
  7 16  1  0  0  0  0 
  7 17  1  0  0  0  0 
M  END
> <cdk:Title>
76000

> <cdk:Remark>
null

> <PUBCHEM_COMPOUND_CID>
76000

> <PUBCHEM_COMPOUND_CANONICALIZED>
1

> <PUBCHEM_CACTVS_COMPLEXITY>
47.7

> <PUBCHEM_CACTVS_HBOND_ACCEPTOR>
0

> <PUBCHEM_CACTVS_HBOND_DONOR>
0

> <PUBCHEM_CACTVS_ROTATABLE_BOND>
2

> <PUBCHEM_CACTVS_SUBSKEYS>
AAADccBgAAAAAwAAAACAAAAAAAAAAAAAAAAAAAAAAAAAAAAAAAAAGAAAAAAAAACAAAACAAAAAAAAAAAAAAAAAAAAAAAAAAAAAAAAAAAAAAAAAAAAAAAAAAAAAAAAAAAAAAAAAAAAAAAAAAAAAAAAAAAAAA==

> <PUBCHEM_IUPAC_OPENEYE_NAME>
diethyl(diiodo)stannane

> <PUBCHEM_IUPAC_CAS_NAME>
diethyl(diiodo)stannane

> <PUBCHEM_IUPAC_NAME>
diethyl(diiodo)stannane

> <PUBCHEM_IUPAC_SYSTEMATIC_NAME>
diethyl-bis(iodanyl)stannane

> <PUBCHEM_IUPAC_TRADITIONAL_NAME>
diethyl(diiodo)stannane

> <PUBCHEM_IUPAC_INCHI>
InChI=1S/2C2H5.2HI.Sn/c2*1-2;;;/h2*1H2,2H3;2*1H;/q;;;;+2/p-2

> <PUBCHEM_IUPAC_INCHIKEY>
MATIRGPIRARBGK-UHFFFAOYSA-L

> <PUBCHEM_EXACT_MASS>
431.789391

> <PUBCHEM_MOLECULAR_FORMULA>
C4H10I2Sn

> <PUBCHEM_MOLECULAR_WEIGHT>
430.64114

> <PUBCHEM_OPENEYE_CAN_SMILES>
CC[Sn](CC)(I)I

> <PUBCHEM_OPENEYE_ISO_SMILES>
CC[Sn](CC)(I)I

> <PUBCHEM_CACTVS_TPSA>
0

> <PUBCHEM_MONOISOTOPIC_WEIGHT>
431.789391

> <PUBCHEM_TOTAL_CHARGE>
0

> <PUBCHEM_HEAVY_ATOM_COUNT>
7

> <PUBCHEM_ATOM_DEF_STEREO_COUNT>
0

> <PUBCHEM_ATOM_UDEF_STEREO_COUNT>
0

> <PUBCHEM_BOND_DEF_STEREO_COUNT>
0

> <PUBCHEM_BOND_UDEF_STEREO_COUNT>
0

> <PUBCHEM_ISOTOPIC_ATOM_COUNT>
0

> <PUBCHEM_COMPONENT_COUNT>
1

> <PUBCHEM_CACTVS_TAUTO_COUNT>
1

> <PUBCHEM_COORDINATE_TYPE>
1
5
255

> <DRUG_ID>
w261

> <DRUG_NAME>
Diiododiethyltin

$$$$
4829
  CDK     0927151942
null
 45 47  0  0  0  0  0  0  0  0999 V2000
    8.1097    3.2088    0.0000 S   0  0  0  0  0  0  0  0  0  0  0  0
    6.3301   -0.8844    0.0000 O   0  0  0  0  0  0  0  0  0  0  0  0
    6.5575    5.2792    0.0000 O   0  0  0  0  0  0  0  0  0  0  0  0
    9.7734    3.8475    0.0000 O   0  0  0  0  0  0  0  0  0  0  0  0
    8.2788    4.8180    0.0000 N   0  0  0  0  0  0  0  0  0  0  0  0
    3.7320   -2.3844    0.0000 N   0  0  0  0  0  0  0  0  0  0  0  0
    7.1962    3.6156    0.0000 C   0  0  3  0  0  0  0  0  0  0  0  0
    6.3301    3.1156    0.0000 C   0  0  0  0  0  0  0  0  0  0  0  0
    6.3301    2.1156    0.0000 C   0  0  0  0  0  0  0  0  0  0  0  0
    7.3007    4.6101    0.0000 C   0  0  0  0  0  0  0  0  0  0  0  0
    5.4641    1.6156    0.0000 C   0  0  0  0  0  0  0  0  0  0  0  0
    7.1962    1.6156    0.0000 C   0  0  0  0  0  0  0  0  0  0  0  0
    5.4641   -2.3844    0.0000 C   0  0  0  0  0  0  0  0  0  0  0  0
    6.3301    0.1156    0.0000 C   0  0  0  0  0  0  0  0  0  0  0  0
    5.4641   -1.3844    0.0000 C   0  0  0  0  0  0  0  0  0  0  0  0
    5.4641    0.6156    0.0000 C   0  0  0  0  0  0  0  0  0  0  0  0
    7.1962    0.6156    0.0000 C   0  0  0  0  0  0  0  0  0  0  0  0
    4.5981   -2.8844    0.0000 C   0  0  0  0  0  0  0  0  0  0  0  0
    8.7788    3.9520    0.0000 C   0  0  0  0  0  0  0  0  0  0  0  0
    2.8660   -3.8844    0.0000 C   0  0  0  0  0  0  0  0  0  0  0  0
    4.5981   -3.8844    0.0000 C   0  0  0  0  0  0  0  0  0  0  0  0
    2.0000   -4.3844    0.0000 C   0  0  0  0  0  0  0  0  0  0  0  0
    3.7320   -4.3844    0.0000 C   0  0  0  0  0  0  0  0  0  0  0  0
    2.8660   -2.8844    0.0000 C   0  0  0  0  0  0  0  0  0  0  0  0
    2.0000   -5.3844    0.0000 C   0  0  0  0  0  0  0  0  0  0  0  0
    7.2406    2.7668    0.0000 H   0  0  0  0  0  0  0  0  0  0  0  0
    6.1181    3.6982    0.0000 H   0  0  0  0  0  0  0  0  0  0  0  0
    5.7196    3.0079    0.0000 H   0  0  0  0  0  0  0  0  0  0  0  0
    4.9272    1.9256    0.0000 H   0  0  0  0  0  0  0  0  0  0  0  0
    7.7331    1.9256    0.0000 H   0  0  0  0  0  0  0  0  0  0  0  0
    5.6762   -2.9670    0.0000 H   0  0  0  0  0  0  0  0  0  0  0  0
    6.0747   -2.2768    0.0000 H   0  0  0  0  0  0  0  0  0  0  0  0
    5.2520   -0.8018    0.0000 H   0  0  0  0  0  0  0  0  0  0  0  0
    4.8535   -1.4921    0.0000 H   0  0  0  0  0  0  0  0  0  0  0  0
    4.9272    0.3056    0.0000 H   0  0  0  0  0  0  0  0  0  0  0  0
    7.7331    0.3056    0.0000 H   0  0  0  0  0  0  0  0  0  0  0  0
    8.5310    5.3844    0.0000 H   0  0  0  0  0  0  0  0  0  0  0  0
    5.1350   -4.1944    0.0000 H   0  0  0  0  0  0  0  0  0  0  0  0
    1.7880   -3.8018    0.0000 H   0  0  0  0  0  0  0  0  0  0  0  0
    1.3894   -4.4921    0.0000 H   0  0  0  0  0  0  0  0  0  0  0  0
    3.7320   -5.0044    0.0000 H   0  0  0  0  0  0  0  0  0  0  0  0
    2.3291   -2.5744    0.0000 H   0  0  0  0  0  0  0  0  0  0  0  0
    1.3800   -5.3844    0.0000 H   0  0  0  0  0  0  0  0  0  0  0  0
    2.0000   -6.0044    0.0000 H   0  0  0  0  0  0  0  0  0  0  0  0
    2.6200   -5.3844    0.0000 H   0  0  0  0  0  0  0  0  0  0  0  0
  1  7  1  0  0  0  0 
  1 19  1  0  0  0  0 
  2 14  1  0  0  0  0 
  2 15  1  0  0  0  0 
  3 10  2  0  0  0  0 
  4 19  2  0  0  0  0 
  5 10  1  0  0  0  0 
  5 19  1  0  0  0  0 
  5 37  1  0  0  0  0 
  6 18  2  0  0  0  0 
  6 24  1  0  0  0  0 
  7  8  1  0  0  0  0 
  7 10  1  0  0  0  0 
  7 26  1  0  0  0  0 
  8  9  1  0  0  0  0 
  8 27  1  0  0  0  0 
  8 28  1  0  0  0  0 
  9 11  2  0  0  0  0 
  9 12  1  0  0  0  0 
 11 16  1  0  0  0  0 
 11 29  1  0  0  0  0 
 12 17  2  0  0  0  0 
 12 30  1  0  0  0  0 
 13 15  1  0  0  0  0 
 13 18  1  0  0  0  0 
 13 31  1  0  0  0  0 
 13 32  1  0  0  0  0 
 14 16  2  0  0  0  0 
 14 17  1  0  0  0  0 
 15 33  1  0  0  0  0 
 15 34  1  0  0  0  0 
 16 35  1  0  0  0  0 
 17 36  1  0  0  0  0 
 18 21  1  0  0  0  0 
 20 22  1  0  0  0  0 
 20 23  1  0  0  0  0 
 20 24  2  0  0  0  0 
 21 23  2  0  0  0  0 
 21 38  1  0  0  0  0 
 22 25  1  0  0  0  0 
 22 39  1  0  0  0  0 
 22 40  1  0  0  0  0 
 23 41  1  0  0  0  0 
 24 42  1  0  0  0  0 
 25 43  1  0  0  0  0 
 25 44  1  0  0  0  0 
 25 45  1  0  0  0  0 
M  END
> <cdk:Title>
4829

> <cdk:Remark>
null

> <PUBCHEM_COMPOUND_CID>
4829

> <PUBCHEM_COMPOUND_CANONICALIZED>
1

> <PUBCHEM_CACTVS_COMPLEXITY>
466

> <PUBCHEM_CACTVS_HBOND_ACCEPTOR>
5

> <PUBCHEM_CACTVS_HBOND_DONOR>
1

> <PUBCHEM_CACTVS_ROTATABLE_BOND>
7

> <PUBCHEM_CACTVS_SUBSKEYS>
AAADceB7MABAAAAAAAAAAAAAAAAAAWAAAAA8QAAAAAAAAAABwAAAHgQQAAAADAzl3ga+hpLIFAioAzV3VACCiCBxIjAI2CE+bJgMJvLksZuGOCjm1DHI6AeYyOCOIAAAAAAAAABAAAAAAAAAAAAAAAAAAA==

> <PUBCHEM_IUPAC_OPENEYE_NAME>
5-[[4-[2-(5-ethyl-2-pyridyl)ethoxy]phenyl]methyl]thiazolidine-2,4-dione

> <PUBCHEM_IUPAC_CAS_NAME>
5-[[4-[2-(5-ethyl-2-pyridinyl)ethoxy]phenyl]methyl]thiazolidine-2,4-dione

> <PUBCHEM_IUPAC_NAME>
5-[[4-[2-(5-ethylpyridin-2-yl)ethoxy]phenyl]methyl]-1,3-thiazolidine-2,4-dione

> <PUBCHEM_IUPAC_SYSTEMATIC_NAME>
5-[[4-[2-(5-ethylpyridin-2-yl)ethoxy]phenyl]methyl]-1,3-thiazolidine-2,4-dione

> <PUBCHEM_IUPAC_TRADITIONAL_NAME>
5-[4-[2-(5-ethyl-2-pyridyl)ethoxy]benzyl]thiazolidine-2,4-quinone

> <PUBCHEM_IUPAC_INCHI>
InChI=1S/C19H20N2O3S/c1-2-13-3-6-15(20-12-13)9-10-24-16-7-4-14(5-8-16)11-17-18(22)21-19(23)25-17/h3-8,12,17H,2,9-11H2,1H3,(H,21,22,23)

> <PUBCHEM_IUPAC_INCHIKEY>
HYAFETHFCAUJAY-UHFFFAOYSA-N

> <PUBCHEM_XLOGP3_AA>
3.8

> <PUBCHEM_EXACT_MASS>
356.119464

> <PUBCHEM_MOLECULAR_FORMULA>
C19H20N2O3S

> <PUBCHEM_MOLECULAR_WEIGHT>
356.4387

> <PUBCHEM_OPENEYE_CAN_SMILES>
CCC1=CN=C(C=C1)CCOC2=CC=C(C=C2)CC3C(=O)NC(=O)S3

> <PUBCHEM_OPENEYE_ISO_SMILES>
CCC1=CN=C(C=C1)CCOC2=CC=C(C=C2)CC3C(=O)NC(=O)S3

> <PUBCHEM_CACTVS_TPSA>
93.6

> <PUBCHEM_MONOISOTOPIC_WEIGHT>
356.119464

> <PUBCHEM_TOTAL_CHARGE>
0

> <PUBCHEM_HEAVY_ATOM_COUNT>
25

> <PUBCHEM_ATOM_DEF_STEREO_COUNT>
0

> <PUBCHEM_ATOM_UDEF_STEREO_COUNT>
1

> <PUBCHEM_BOND_DEF_STEREO_COUNT>
0

> <PUBCHEM_BOND_UDEF_STEREO_COUNT>
0

> <PUBCHEM_ISOTOPIC_ATOM_COUNT>
0

> <PUBCHEM_COMPONENT_COUNT>
1

> <PUBCHEM_CACTVS_TAUTO_COUNT>
10

> <PUBCHEM_COORDINATE_TYPE>
1
5
255

> <PUBCHEM_BONDANNOTATIONS>
11  16  8
12  17  8
14  16  8
14  17  8
18  21  8
20  23  8
20  24  8
21  23  8
6  18  8
6  24  8
7  26  3
9  11  8
9  12  8

> <DRUG_ID>
w262

> <DRUG_NAME>
Pioglitazone

$$$$
37542
  CDK     0927151942
null
 29 30  0  0  0  0  0  0  0  0999 V2000
    5.0298   -1.5122    0.0000 O   0  0  0  0  0  0  0  0  0  0  0  0
    2.4608   -1.2031    0.0000 O   0  0  0  0  0  0  0  0  0  0  0  0
    3.1330   -3.2722    0.0000 O   0  0  0  0  0  0  0  0  0  0  0  0
    6.3031   -3.1677    0.0000 O   0  0  0  0  0  0  0  0  0  0  0  0
    6.3031    2.3190    0.0000 O   0  0  0  0  0  0  0  0  0  0  0  0
    4.2208    0.0756    0.0000 N   0  0  0  0  0  0  0  0  0  0  0  0
    5.0298    0.6634    0.0000 N   0  0  0  0  0  0  0  0  0  0  0  0
    3.7208    1.6145    0.0000 N   0  0  0  0  0  0  0  0  0  0  0  0
    4.9019    3.3370    0.0000 N   0  0  0  0  0  0  0  0  0  0  0  0
    3.7208   -2.4632    0.0000 C   0  0  1  0  0  0  0  0  0  0  0  0
    3.4118   -1.5122    0.0000 C   0  0  2  0  0  0  0  0  0  0  0  0
    4.7208   -2.4632    0.0000 C   0  0  1  0  0  0  0  0  0  0  0  0
    4.2208   -0.9244    0.0000 C   0  0  1  0  0  0  0  0  0  0  0  0
    5.3086   -3.2722    0.0000 C   0  0  0  0  0  0  0  0  0  0  0  0
    3.4118    0.6634    0.0000 C   0  0  0  0  0  0  0  0  0  0  0  0
    4.7208    1.6145    0.0000 C   0  0  0  0  0  0  0  0  0  0  0  0
    5.3086    2.4235    0.0000 C   0  0  0  0  0  0  0  0  0  0  0  0
    3.3148   -0.8998    0.0000 H   0  0  0  0  0  0  0  0  0  0  0  0
    3.1085   -2.3662    0.0000 H   0  0  0  0  0  0  0  0  0  0  0  0
    5.3332   -2.3662    0.0000 H   0  0  0  0  0  0  0  0  0  0  0  0
    3.6684   -0.6429    0.0000 H   0  0  0  0  0  0  0  0  0  0  0  0
    4.7514   -3.5440    0.0000 H   0  0  0  0  0  0  0  0  0  0  0  0
    5.4795   -3.8682    0.0000 H   0  0  0  0  0  0  0  0  0  0  0  0
    2.0000   -1.6180    0.0000 H   0  0  0  0  0  0  0  0  0  0  0  0
    3.3852   -3.8386    0.0000 H   0  0  0  0  0  0  0  0  0  0  0  0
    2.8222    0.4718    0.0000 H   0  0  0  0  0  0  0  0  0  0  0  0
    6.6676   -3.6693    0.0000 H   0  0  0  0  0  0  0  0  0  0  0  0
    5.2663    3.8386    0.0000 H   0  0  0  0  0  0  0  0  0  0  0  0
    4.2853    3.4018    0.0000 H   0  0  0  0  0  0  0  0  0  0  0  0
  1 12  1  0  0  0  0 
  1 13  1  0  0  0  0 
 11  2  1  1  0  0  0 
  2 24  1  0  0  0  0 
 10  3  1  1  0  0  0 
  3 25  1  0  0  0  0 
  4 14  1  0  0  0  0 
  4 27  1  0  0  0  0 
  5 17  2  0  0  0  0 
  6  7  1  0  0  0  0 
 13  6  1  6  0  0  0 
  6 15  1  0  0  0  0 
  7 16  2  0  0  0  0 
  8 15  2  0  0  0  0 
  8 16  1  0  0  0  0 
  9 17  1  0  0  0  0 
  9 28  1  0  0  0  0 
  9 29  1  0  0  0  0 
 10 11  1  0  0  0  0 
 10 12  1  0  0  0  0 
 10 19  1  0  0  0  0 
 11 13  1  0  0  0  0 
 11 18  1  0  0  0  0 
 12 14  1  6  0  0  0 
 12 20  1  0  0  0  0 
 13 21  1  0  0  0  0 
 14 22  1  0  0  0  0 
 14 23  1  0  0  0  0 
 15 26  1  0  0  0  0 
 16 17  1  0  0  0  0 
M  END
> <cdk:Title>
37542

> <cdk:Remark>
null

> <PUBCHEM_COMPOUND_CID>
37542

> <PUBCHEM_COMPOUND_CANONICALIZED>
1

> <PUBCHEM_CACTVS_COMPLEXITY>
304

> <PUBCHEM_CACTVS_HBOND_ACCEPTOR>
7

> <PUBCHEM_CACTVS_HBOND_DONOR>
4

> <PUBCHEM_CACTVS_ROTATABLE_BOND>
3

> <PUBCHEM_CACTVS_SUBSKEYS>
AAADccBzuAAAAAAAAAAAAAAAAAAAAWJAAAAAAAAAAAAAAAABgAAAHgAYCAAACBThgwYFEAZIFgAqAAMxNAAQgAsSgKAVQACIAACDWAIAiCAeQAAPCAITAADwMAIAAAAAAAAAAAAAAAAAAAAAAAAAAAAAAA==

> <PUBCHEM_IUPAC_OPENEYE_NAME>
1-[(2R,3R,4S,5R)-3,4-dihydroxy-5-(hydroxymethyl)tetrahydrofuran-2-yl]-1,2,4-triazole-3-carboxamide

> <PUBCHEM_IUPAC_CAS_NAME>
1-[(2R,3R,4S,5R)-3,4-dihydroxy-5-(hydroxymethyl)-2-oxolanyl]-1,2,4-triazole-3-carboxamide

> <PUBCHEM_IUPAC_NAME>
1-[(2R,3R,4S,5R)-3,4-dihydroxy-5-(hydroxymethyl)oxolan-2-yl]-1,2,4-triazole-3-carboxamide

> <PUBCHEM_IUPAC_SYSTEMATIC_NAME>
1-[(2R,3R,4S,5R)-5-(hydroxymethyl)-3,4-bis(oxidanyl)oxolan-2-yl]-1,2,4-triazole-3-carboxamide

> <PUBCHEM_IUPAC_TRADITIONAL_NAME>
1-[(2R,3R,4S,5R)-3,4-dihydroxy-5-methylol-tetrahydrofuran-2-yl]-1,2,4-triazole-3-carboxamide

> <PUBCHEM_IUPAC_INCHI>
InChI=1S/C8H12N4O5/c9-6(16)7-10-2-12(11-7)8-5(15)4(14)3(1-13)17-8/h2-5,8,13-15H,1H2,(H2,9,16)/t3-,4-,5-,8-/m1/s1

> <PUBCHEM_IUPAC_INCHIKEY>
IWUCXVSUMQZMFG-AFCXAGJDSA-N

> <PUBCHEM_XLOGP3>
-1.8

> <PUBCHEM_EXACT_MASS>
244.08077

> <PUBCHEM_MOLECULAR_FORMULA>
C8H12N4O5

> <PUBCHEM_MOLECULAR_WEIGHT>
244.20468

> <PUBCHEM_OPENEYE_CAN_SMILES>
C1=NC(=NN1C2C(C(C(O2)CO)O)O)C(=O)N

> <PUBCHEM_OPENEYE_ISO_SMILES>
C1=NC(=NN1[C@H]2[C@@H]([C@@H]([C@H](O2)CO)O)O)C(=O)N

> <PUBCHEM_CACTVS_TPSA>
144

> <PUBCHEM_MONOISOTOPIC_WEIGHT>
244.08077

> <PUBCHEM_TOTAL_CHARGE>
0

> <PUBCHEM_HEAVY_ATOM_COUNT>
17

> <PUBCHEM_ATOM_DEF_STEREO_COUNT>
4

> <PUBCHEM_ATOM_UDEF_STEREO_COUNT>
0

> <PUBCHEM_BOND_DEF_STEREO_COUNT>
0

> <PUBCHEM_BOND_UDEF_STEREO_COUNT>
0

> <PUBCHEM_ISOTOPIC_ATOM_COUNT>
0

> <PUBCHEM_COMPONENT_COUNT>
1

> <PUBCHEM_CACTVS_TAUTO_COUNT>
2

> <PUBCHEM_COORDINATE_TYPE>
1
5
255

> <PUBCHEM_BONDANNOTATIONS>
12  14  6
11  2  5
10  3  5
13  6  6
6  15  8
6  7  8
7  16  8
8  15  8
8  16  8

> <DRUG_ID>
w263

> <DRUG_NAME>
Ribavirin

$$$$
66265
  CDK     0927151942
null
 32 32  0  0  0  0  0  0  0  0999 V2000
    5.4641    3.5000    0.0000 F   0  0  0  0  0  0  0  0  0  0  0  0
    6.4641    2.5000    0.0000 F   0  0  0  0  0  0  0  0  0  0  0  0
    4.4641    2.5000    0.0000 F   0  0  0  0  0  0  0  0  0  0  0  0
    2.8660   -2.0000    0.0000 N   0  0  0  0  0  0  0  0  0  0  0  0
    3.7320   -1.5000    0.0000 C   0  0  2  0  0  0  0  0  0  0  0  0
    3.7320   -0.5000    0.0000 C   0  0  0  0  0  0  0  0  0  0  0  0
    4.5981    0.0000    0.0000 C   0  0  0  0  0  0  0  0  0  0  0  0
    4.5981   -2.0000    0.0000 C   0  0  0  0  0  0  0  0  0  0  0  0
    2.8660   -3.0000    0.0000 C   0  0  0  0  0  0  0  0  0  0  0  0
    4.5981    1.0000    0.0000 C   0  0  0  0  0  0  0  0  0  0  0  0
    5.4641   -0.5000    0.0000 C   0  0  0  0  0  0  0  0  0  0  0  0
    5.4641    1.5000    0.0000 C   0  0  0  0  0  0  0  0  0  0  0  0
    6.3301    0.0000    0.0000 C   0  0  0  0  0  0  0  0  0  0  0  0
    6.3301    1.0000    0.0000 C   0  0  0  0  0  0  0  0  0  0  0  0
    2.0000   -3.5000    0.0000 C   0  0  0  0  0  0  0  0  0  0  0  0
    5.4641    2.5000    0.0000 C   0  0  0  0  0  0  0  0  0  0  0  0
    3.7320   -2.1200    0.0000 H   0  0  0  0  0  0  0  0  0  0  0  0
    3.5200    0.0826    0.0000 H   0  0  0  0  0  0  0  0  0  0  0  0
    3.1215   -0.6077    0.0000 H   0  0  0  0  0  0  0  0  0  0  0  0
    2.3291   -1.6900    0.0000 H   0  0  0  0  0  0  0  0  0  0  0  0
    4.2881   -2.5369    0.0000 H   0  0  0  0  0  0  0  0  0  0  0  0
    5.1350   -2.3100    0.0000 H   0  0  0  0  0  0  0  0  0  0  0  0
    4.9081   -1.4631    0.0000 H   0  0  0  0  0  0  0  0  0  0  0  0
    3.0781   -3.5826    0.0000 H   0  0  0  0  0  0  0  0  0  0  0  0
    3.4766   -2.8923    0.0000 H   0  0  0  0  0  0  0  0  0  0  0  0
    4.0611    1.3100    0.0000 H   0  0  0  0  0  0  0  0  0  0  0  0
    5.4641   -1.1200    0.0000 H   0  0  0  0  0  0  0  0  0  0  0  0
    6.8671   -0.3100    0.0000 H   0  0  0  0  0  0  0  0  0  0  0  0
    6.8671    1.3100    0.0000 H   0  0  0  0  0  0  0  0  0  0  0  0
    1.6900   -2.9631    0.0000 H   0  0  0  0  0  0  0  0  0  0  0  0
    1.4631   -3.8100    0.0000 H   0  0  0  0  0  0  0  0  0  0  0  0
    2.3100   -4.0369    0.0000 H   0  0  0  0  0  0  0  0  0  0  0  0
  1 16  1  0  0  0  0 
  2 16  1  0  0  0  0 
  3 16  1  0  0  0  0 
  5  4  1  6  0  0  0 
  4  9  1  0  0  0  0 
  4 20  1  0  0  0  0 
  5  6  1  0  0  0  0 
  5  8  1  0  0  0  0 
  5 17  1  0  0  0  0 
  6  7  1  0  0  0  0 
  6 18  1  0  0  0  0 
  6 19  1  0  0  0  0 
  7 10  2  0  0  0  0 
  7 11  1  0  0  0  0 
  8 21  1  0  0  0  0 
  8 22  1  0  0  0  0 
  8 23  1  0  0  0  0 
  9 15  1  0  0  0  0 
  9 24  1  0  0  0  0 
  9 25  1  0  0  0  0 
 10 12  1  0  0  0  0 
 10 26  1  0  0  0  0 
 11 13  2  0  0  0  0 
 11 27  1  0  0  0  0 
 12 14  2  0  0  0  0 
 12 16  1  0  0  0  0 
 13 14  1  0  0  0  0 
 13 28  1  0  0  0  0 
 14 29  1  0  0  0  0 
 15 30  1  0  0  0  0 
 15 31  1  0  0  0  0 
 15 32  1  0  0  0  0 
M  END
> <cdk:Title>
66265

> <cdk:Remark>
null

> <PUBCHEM_COMPOUND_CID>
66265

> <PUBCHEM_COMPOUND_CANONICALIZED>
1

> <PUBCHEM_CACTVS_COMPLEXITY>
203

> <PUBCHEM_CACTVS_HBOND_ACCEPTOR>
4

> <PUBCHEM_CACTVS_HBOND_DONOR>
1

> <PUBCHEM_CACTVS_ROTATABLE_BOND>
4

> <PUBCHEM_CACTVS_SUBSKEYS>
AAADceByAYAAAAAAAAAAAAAAAAAAAAAAAAAwAAAAAAAAAAABAAAAHQAQAAAADCjBGBQyAILAAACAAiBCAAACAAAgAAAIiIAIAIgIICKAkRGEIAAgkACIiAcQgMAOAAACAAAAAAAAAAQAAAAAAAAAAAAAAA==

> <PUBCHEM_IUPAC_OPENEYE_NAME>
(2S)-N-ethyl-1-[3-(trifluoromethyl)phenyl]propan-2-amine

> <PUBCHEM_IUPAC_CAS_NAME>
(2S)-N-ethyl-1-[3-(trifluoromethyl)phenyl]-2-propanamine

> <PUBCHEM_IUPAC_NAME>
(2S)-N-ethyl-1-[3-(trifluoromethyl)phenyl]propan-2-amine

> <PUBCHEM_IUPAC_SYSTEMATIC_NAME>
(2S)-N-ethyl-1-[3-(trifluoromethyl)phenyl]propan-2-amine

> <PUBCHEM_IUPAC_TRADITIONAL_NAME>
ethyl-[(1S)-1-methyl-2-[3-(trifluoromethyl)phenyl]ethyl]amine

> <PUBCHEM_IUPAC_INCHI>
InChI=1S/C12H16F3N/c1-3-16-9(2)7-10-5-4-6-11(8-10)12(13,14)15/h4-6,8-9,16H,3,7H2,1-2H3/t9-/m0/s1

> <PUBCHEM_IUPAC_INCHIKEY>
DBGIVFWFUFKIQN-VIFPVBQESA-N

> <PUBCHEM_XLOGP3>
3.4

> <PUBCHEM_EXACT_MASS>
231.123484

> <PUBCHEM_MOLECULAR_FORMULA>
C12H16F3N

> <PUBCHEM_MOLECULAR_WEIGHT>
231.25735

> <PUBCHEM_OPENEYE_CAN_SMILES>
CCNC(C)CC1=CC(=CC=C1)C(F)(F)F

> <PUBCHEM_OPENEYE_ISO_SMILES>
CCN[C@@H](C)CC1=CC(=CC=C1)C(F)(F)F

> <PUBCHEM_CACTVS_TPSA>
12

> <PUBCHEM_MONOISOTOPIC_WEIGHT>
231.123484

> <PUBCHEM_TOTAL_CHARGE>
0

> <PUBCHEM_HEAVY_ATOM_COUNT>
16

> <PUBCHEM_ATOM_DEF_STEREO_COUNT>
1

> <PUBCHEM_ATOM_UDEF_STEREO_COUNT>
0

> <PUBCHEM_BOND_DEF_STEREO_COUNT>
0

> <PUBCHEM_BOND_UDEF_STEREO_COUNT>
0

> <PUBCHEM_ISOTOPIC_ATOM_COUNT>
0

> <PUBCHEM_COMPONENT_COUNT>
1

> <PUBCHEM_CACTVS_TAUTO_COUNT>
3

> <PUBCHEM_COORDINATE_TYPE>
1
5
255

> <PUBCHEM_BONDANNOTATIONS>
10  12  8
11  13  8
12  14  8
13  14  8
5  4  6
7  10  8
7  11  8

> <DRUG_ID>
w27

> <DRUG_NAME>
Dexfenfluramine

$$$$
2769
  CDK     0927151942
null
 61 63  0  0  0  0  0  0  0  0999 V2000
    6.3301   -6.0950    0.0000 Cl  0  0  0  0  0  0  0  0  0  0  0  0
    7.1962    7.4050    0.0000 F   0  0  0  0  0  0  0  0  0  0  0  0
    3.7320   -1.5950    0.0000 O   0  0  0  0  0  0  0  0  0  0  0  0
    7.1962    3.4050    0.0000 O   0  0  0  0  0  0  0  0  0  0  0  0
    3.7320   -2.5950    0.0000 O   0  0  0  0  0  0  0  0  0  0  0  0
    2.8660   -4.0950    0.0000 O   0  0  0  0  0  0  0  0  0  0  0  0
    5.4641    0.4050    0.0000 N   0  0  3  0  0  0  0  0  0  0  0  0
    5.4641   -2.5950    0.0000 N   0  0  0  0  0  0  0  0  0  0  0  0
    4.5981   -7.0950    0.0000 N   0  0  0  0  0  0  0  0  0  0  0  0
    5.4641   -1.5950    0.0000 C   0  0  3  0  0  0  0  0  0  0  0  0
    4.5981   -1.0950    0.0000 C   0  0  3  0  0  0  0  0  0  0  0  0
    6.3301   -1.0950    0.0000 C   0  0  0  0  0  0  0  0  0  0  0  0
    4.5981   -0.0950    0.0000 C   0  0  0  0  0  0  0  0  0  0  0  0
    6.3301   -0.0950    0.0000 C   0  0  0  0  0  0  0  0  0  0  0  0
    5.4641    1.4050    0.0000 C   0  0  0  0  0  0  0  0  0  0  0  0
    6.3301    1.9050    0.0000 C   0  0  0  0  0  0  0  0  0  0  0  0
    4.5981   -3.0950    0.0000 C   0  0  0  0  0  0  0  0  0  0  0  0
    6.3301    2.9050    0.0000 C   0  0  0  0  0  0  0  0  0  0  0  0
    2.8660   -1.0950    0.0000 C   0  0  0  0  0  0  0  0  0  0  0  0
    4.5981   -4.0950    0.0000 C   0  0  0  0  0  0  0  0  0  0  0  0
    3.7320   -4.5950    0.0000 C   0  0  0  0  0  0  0  0  0  0  0  0
    5.4641   -4.5950    0.0000 C   0  0  0  0  0  0  0  0  0  0  0  0
    7.1962    4.4050    0.0000 C   0  0  0  0  0  0  0  0  0  0  0  0
    3.7320   -5.5950    0.0000 C   0  0  0  0  0  0  0  0  0  0  0  0
    5.4641   -5.5950    0.0000 C   0  0  0  0  0  0  0  0  0  0  0  0
    4.5981   -6.0950    0.0000 C   0  0  0  0  0  0  0  0  0  0  0  0
    8.0622    4.9050    0.0000 C   0  0  0  0  0  0  0  0  0  0  0  0
    6.3301    4.9050    0.0000 C   0  0  0  0  0  0  0  0  0  0  0  0
    2.0000   -4.5950    0.0000 C   0  0  0  0  0  0  0  0  0  0  0  0
    8.0622    5.9050    0.0000 C   0  0  0  0  0  0  0  0  0  0  0  0
    6.3301    5.9050    0.0000 C   0  0  0  0  0  0  0  0  0  0  0  0
    7.1962    6.4050    0.0000 C   0  0  0  0  0  0  0  0  0  0  0  0
    6.0010   -1.9050    0.0000 H   0  0  0  0  0  0  0  0  0  0  0  0
    4.5981   -1.7150    0.0000 H   0  0  0  0  0  0  0  0  0  0  0  0
    6.5422   -1.6776    0.0000 H   0  0  0  0  0  0  0  0  0  0  0  0
    6.9407   -0.9873    0.0000 H   0  0  0  0  0  0  0  0  0  0  0  0
    4.3860    0.4876    0.0000 H   0  0  0  0  0  0  0  0  0  0  0  0
    3.9875   -0.2027    0.0000 H   0  0  0  0  0  0  0  0  0  0  0  0
    6.9407   -0.2027    0.0000 H   0  0  0  0  0  0  0  0  0  0  0  0
    6.5422    0.4876    0.0000 H   0  0  0  0  0  0  0  0  0  0  0  0
    5.2520    1.9876    0.0000 H   0  0  0  0  0  0  0  0  0  0  0  0
    4.8535    1.2973    0.0000 H   0  0  0  0  0  0  0  0  0  0  0  0
    6.0010   -2.9050    0.0000 H   0  0  0  0  0  0  0  0  0  0  0  0
    6.5422    1.3224    0.0000 H   0  0  0  0  0  0  0  0  0  0  0  0
    6.9407    2.0127    0.0000 H   0  0  0  0  0  0  0  0  0  0  0  0
    6.1181    3.4876    0.0000 H   0  0  0  0  0  0  0  0  0  0  0  0
    5.7196    2.7973    0.0000 H   0  0  0  0  0  0  0  0  0  0  0  0
    3.1760   -0.5581    0.0000 H   0  0  0  0  0  0  0  0  0  0  0  0
    2.3291   -0.7850    0.0000 H   0  0  0  0  0  0  0  0  0  0  0  0
    2.5560   -1.6319    0.0000 H   0  0  0  0  0  0  0  0  0  0  0  0
    6.0010   -4.2850    0.0000 H   0  0  0  0  0  0  0  0  0  0  0  0
    3.1951   -5.9050    0.0000 H   0  0  0  0  0  0  0  0  0  0  0  0
    8.5991    4.5950    0.0000 H   0  0  0  0  0  0  0  0  0  0  0  0
    5.7932    4.5950    0.0000 H   0  0  0  0  0  0  0  0  0  0  0  0
    4.0611   -7.4050    0.0000 H   0  0  0  0  0  0  0  0  0  0  0  0
    5.1350   -7.4050    0.0000 H   0  0  0  0  0  0  0  0  0  0  0  0
    1.6900   -4.0581    0.0000 H   0  0  0  0  0  0  0  0  0  0  0  0
    1.4631   -4.9050    0.0000 H   0  0  0  0  0  0  0  0  0  0  0  0
    2.3100   -5.1319    0.0000 H   0  0  0  0  0  0  0  0  0  0  0  0
    8.5991    6.2150    0.0000 H   0  0  0  0  0  0  0  0  0  0  0  0
    5.7932    6.2150    0.0000 H   0  0  0  0  0  0  0  0  0  0  0  0
  1 25  1  0  0  0  0 
  2 32  1  0  0  0  0 
  3 11  1  0  0  0  0 
  3 19  1  0  0  0  0 
  4 18  1  0  0  0  0 
  4 23  1  0  0  0  0 
  5 17  2  0  0  0  0 
  6 21  1  0  0  0  0 
  6 29  1  0  0  0  0 
  7 13  1  0  0  0  0 
  7 14  1  0  0  0  0 
  7 15  1  0  0  0  0 
  8 10  1  0  0  0  0 
  8 17  1  0  0  0  0 
  8 43  1  0  0  0  0 
  9 26  1  0  0  0  0 
  9 55  1  0  0  0  0 
  9 56  1  0  0  0  0 
 10 11  1  0  0  0  0 
 10 12  1  0  0  0  0 
 10 33  1  0  0  0  0 
 11 13  1  0  0  0  0 
 11 34  1  0  0  0  0 
 12 14  1  0  0  0  0 
 12 35  1  0  0  0  0 
 12 36  1  0  0  0  0 
 13 37  1  0  0  0  0 
 13 38  1  0  0  0  0 
 14 39  1  0  0  0  0 
 14 40  1  0  0  0  0 
 15 16  1  0  0  0  0 
 15 41  1  0  0  0  0 
 15 42  1  0  0  0  0 
 16 18  1  0  0  0  0 
 16 44  1  0  0  0  0 
 16 45  1  0  0  0  0 
 17 20  1  0  0  0  0 
 18 46  1  0  0  0  0 
 18 47  1  0  0  0  0 
 19 48  1  0  0  0  0 
 19 49  1  0  0  0  0 
 19 50  1  0  0  0  0 
 20 21  1  0  0  0  0 
 20 22  2  0  0  0  0 
 21 24  2  0  0  0  0 
 22 25  1  0  0  0  0 
 22 51  1  0  0  0  0 
 23 27  2  0  0  0  0 
 23 28  1  0  0  0  0 
 24 26  1  0  0  0  0 
 24 52  1  0  0  0  0 
 25 26  2  0  0  0  0 
 27 30  1  0  0  0  0 
 27 53  1  0  0  0  0 
 28 31  2  0  0  0  0 
 28 54  1  0  0  0  0 
 29 57  1  0  0  0  0 
 29 58  1  0  0  0  0 
 29 59  1  0  0  0  0 
 30 32  2  0  0  0  0 
 30 60  1  0  0  0  0 
 31 32  1  0  0  0  0 
 31 61  1  0  0  0  0 
M  END
> <cdk:Title>
2769

> <cdk:Remark>
null

> <PUBCHEM_COMPOUND_CID>
2769

> <PUBCHEM_COMPOUND_CANONICALIZED>
1

> <PUBCHEM_CACTVS_COMPLEXITY>
581

> <PUBCHEM_CACTVS_HBOND_ACCEPTOR>
7

> <PUBCHEM_CACTVS_HBOND_DONOR>
2

> <PUBCHEM_CACTVS_ROTATABLE_BOND>
9

> <PUBCHEM_CACTVS_SUBSKEYS>
AAADceB7OQAEAAAAAAAAAAAAAAAAAAAAAAA8YIAAAAAAAAABQAAAHwIQAAAADD7hmC4yxoPABACIAiVSUACCCAAkJwAIiIEObsgOJjaF95uHOWjm9hmY6Ye42SGeCCAAIgAIABAQQABEABAAIAAAAAAAAA==

> <PUBCHEM_IUPAC_OPENEYE_NAME>
4-amino-5-chloro-N-[1-[3-(4-fluorophenoxy)propyl]-3-methoxy-4-piperidyl]-2-methoxy-benzamide

> <PUBCHEM_IUPAC_CAS_NAME>
4-amino-5-chloro-N-[1-[3-(4-fluorophenoxy)propyl]-3-methoxy-4-piperidinyl]-2-methoxybenzamide

> <PUBCHEM_IUPAC_NAME>
4-amino-5-chloro-N-[1-[3-(4-fluorophenoxy)propyl]-3-methoxypiperidin-4-yl]-2-methoxybenzamide

> <PUBCHEM_IUPAC_SYSTEMATIC_NAME>
4-azanyl-5-chloranyl-N-[1-[3-(4-fluoranylphenoxy)propyl]-3-methoxy-piperidin-4-yl]-2-methoxy-benzamide

> <PUBCHEM_IUPAC_TRADITIONAL_NAME>
4-amino-5-chloro-N-[1-[3-(4-fluorophenoxy)propyl]-3-methoxy-4-piperidyl]-2-methoxy-benzamide

> <PUBCHEM_IUPAC_INCHI>
InChI=1S/C23H29ClFN3O4/c1-30-21-13-19(26)18(24)12-17(21)23(29)27-20-8-10-28(14-22(20)31-2)9-3-11-32-16-6-4-15(25)5-7-16/h4-7,12-13,20,22H,3,8-11,14,26H2,1-2H3,(H,27,29)

> <PUBCHEM_IUPAC_INCHIKEY>
DCSUBABJRXZOMT-UHFFFAOYSA-N

> <PUBCHEM_XLOGP3_AA>
3.4

> <PUBCHEM_EXACT_MASS>
465.183062

> <PUBCHEM_MOLECULAR_FORMULA>
C23H29ClFN3O4

> <PUBCHEM_MOLECULAR_WEIGHT>
465.945463

> <PUBCHEM_OPENEYE_CAN_SMILES>
COC1CN(CCC1NC(=O)C2=CC(=C(C=C2OC)N)Cl)CCCOC3=CC=C(C=C3)F

> <PUBCHEM_OPENEYE_ISO_SMILES>
COC1CN(CCC1NC(=O)C2=CC(=C(C=C2OC)N)Cl)CCCOC3=CC=C(C=C3)F

> <PUBCHEM_CACTVS_TPSA>
86

> <PUBCHEM_MONOISOTOPIC_WEIGHT>
465.183062

> <PUBCHEM_TOTAL_CHARGE>
0

> <PUBCHEM_HEAVY_ATOM_COUNT>
32

> <PUBCHEM_ATOM_DEF_STEREO_COUNT>
0

> <PUBCHEM_ATOM_UDEF_STEREO_COUNT>
2

> <PUBCHEM_BOND_DEF_STEREO_COUNT>
0

> <PUBCHEM_BOND_UDEF_STEREO_COUNT>
0

> <PUBCHEM_ISOTOPIC_ATOM_COUNT>
0

> <PUBCHEM_COMPONENT_COUNT>
1

> <PUBCHEM_CACTVS_TAUTO_COUNT>
5

> <PUBCHEM_COORDINATE_TYPE>
1
5
255

> <PUBCHEM_BONDANNOTATIONS>
20  21  8
20  22  8
21  24  8
22  25  8
23  27  8
23  28  8
24  26  8
25  26  8
27  30  8
28  31  8
11  3  3
30  32  8
31  32  8
10  8  3

> <DRUG_ID>
w28

> <DRUG_NAME>
Cisapride

$$$$
4922
  CDK     0927151942
null
 50 50  0  0  0  0  0  0  0  0999 V2000
    6.3301    0.5000    0.0000 O   0  0  0  0  0  0  0  0  0  0  0  0
    2.8660   -0.5000    0.0000 O   0  0  0  0  0  0  0  0  0  0  0  0
    2.8660    3.5000    0.0000 O   0  0  0  0  0  0  0  0  0  0  0  0
    2.0000    2.0000    0.0000 O   0  0  0  0  0  0  0  0  0  0  0  0
    5.4641    2.0000    0.0000 N   0  0  0  0  0  0  0  0  0  0  0  0
    4.5981   -0.5000    0.0000 N   0  0  0  0  0  0  0  0  0  0  0  0
    4.5981    0.5000    0.0000 C   0  0  3  0  0  0  0  0  0  0  0  0
    5.4641    1.0000    0.0000 C   0  0  0  0  0  0  0  0  0  0  0  0
    3.7320    1.0000    0.0000 C   0  0  0  0  0  0  0  0  0  0  0  0
    6.3301    2.5000    0.0000 C   0  0  0  0  0  0  0  0  0  0  0  0
    4.5981    2.5000    0.0000 C   0  0  0  0  0  0  0  0  0  0  0  0
    6.3301    3.5000    0.0000 C   0  0  0  0  0  0  0  0  0  0  0  0
    4.5981    3.5000    0.0000 C   0  0  0  0  0  0  0  0  0  0  0  0
    3.7320    2.0000    0.0000 C   0  0  0  0  0  0  0  0  0  0  0  0
    5.4641    4.0000    0.0000 C   0  0  0  0  0  0  0  0  0  0  0  0
    7.1962    4.0000    0.0000 C   0  0  0  0  0  0  0  0  0  0  0  0
    3.7320   -1.0000    0.0000 C   0  0  0  0  0  0  0  0  0  0  0  0
    2.8660    2.5000    0.0000 C   0  0  0  0  0  0  0  0  0  0  0  0
    3.7320   -2.0000    0.0000 C   0  0  0  0  0  0  0  0  0  0  0  0
    2.8660   -2.5000    0.0000 C   0  0  0  0  0  0  0  0  0  0  0  0
    4.5981   -2.5000    0.0000 C   0  0  0  0  0  0  0  0  0  0  0  0
    2.8660   -3.5000    0.0000 C   0  0  0  0  0  0  0  0  0  0  0  0
    4.5981   -3.5000    0.0000 C   0  0  0  0  0  0  0  0  0  0  0  0
    3.7320   -4.0000    0.0000 C   0  0  0  0  0  0  0  0  0  0  0  0
    5.1350    0.1900    0.0000 H   0  0  0  0  0  0  0  0  0  0  0  0
    3.1215    1.1077    0.0000 H   0  0  0  0  0  0  0  0  0  0  0  0
    3.5200    0.4174    0.0000 H   0  0  0  0  0  0  0  0  0  0  0  0
    3.9875    2.6077    0.0000 H   0  0  0  0  0  0  0  0  0  0  0  0
    4.3860    1.9174    0.0000 H   0  0  0  0  0  0  0  0  0  0  0  0
    6.5422    1.9174    0.0000 H   0  0  0  0  0  0  0  0  0  0  0  0
    6.9407    2.6077    0.0000 H   0  0  0  0  0  0  0  0  0  0  0  0
    6.1181    4.0826    0.0000 H   0  0  0  0  0  0  0  0  0  0  0  0
    5.7196    3.3923    0.0000 H   0  0  0  0  0  0  0  0  0  0  0  0
    4.3860    4.0826    0.0000 H   0  0  0  0  0  0  0  0  0  0  0  0
    3.9875    3.3923    0.0000 H   0  0  0  0  0  0  0  0  0  0  0  0
    4.3426    1.8923    0.0000 H   0  0  0  0  0  0  0  0  0  0  0  0
    3.9441    2.5826    0.0000 H   0  0  0  0  0  0  0  0  0  0  0  0
    5.1350   -0.8100    0.0000 H   0  0  0  0  0  0  0  0  0  0  0  0
    7.5062    3.4631    0.0000 H   0  0  0  0  0  0  0  0  0  0  0  0
    5.7741    3.4631    0.0000 H   0  0  0  0  0  0  0  0  0  0  0  0
    6.0010    4.3100    0.0000 H   0  0  0  0  0  0  0  0  0  0  0  0
    5.1541    4.5369    0.0000 H   0  0  0  0  0  0  0  0  0  0  0  0
    7.7331    4.3100    0.0000 H   0  0  0  0  0  0  0  0  0  0  0  0
    6.8862    4.5369    0.0000 H   0  0  0  0  0  0  0  0  0  0  0  0
    2.3291   -2.1900    0.0000 H   0  0  0  0  0  0  0  0  0  0  0  0
    5.1350   -2.1900    0.0000 H   0  0  0  0  0  0  0  0  0  0  0  0
    2.3291    3.8100    0.0000 H   0  0  0  0  0  0  0  0  0  0  0  0
    2.3291   -3.8100    0.0000 H   0  0  0  0  0  0  0  0  0  0  0  0
    5.1350   -3.8100    0.0000 H   0  0  0  0  0  0  0  0  0  0  0  0
    3.7320   -4.6200    0.0000 H   0  0  0  0  0  0  0  0  0  0  0  0
  1  8  2  0  0  0  0 
  2 17  2  0  0  0  0 
  3 18  1  0  0  0  0 
  3 47  1  0  0  0  0 
  4 18  2  0  0  0  0 
  5  8  1  0  0  0  0 
  5 10  1  0  0  0  0 
  5 11  1  0  0  0  0 
  6  7  1  0  0  0  0 
  6 17  1  0  0  0  0 
  6 38  1  0  0  0  0 
  7  8  1  0  0  0  0 
  7  9  1  0  0  0  0 
  7 25  1  0  0  0  0 
  9 14  1  0  0  0  0 
  9 26  1  0  0  0  0 
  9 27  1  0  0  0  0 
 10 12  1  0  0  0  0 
 10 30  1  0  0  0  0 
 10 31  1  0  0  0  0 
 11 13  1  0  0  0  0 
 11 28  1  0  0  0  0 
 11 29  1  0  0  0  0 
 12 16  1  0  0  0  0 
 12 32  1  0  0  0  0 
 12 33  1  0  0  0  0 
 13 15  1  0  0  0  0 
 13 34  1  0  0  0  0 
 13 35  1  0  0  0  0 
 14 18  1  0  0  0  0 
 14 36  1  0  0  0  0 
 14 37  1  0  0  0  0 
 15 40  1  0  0  0  0 
 15 41  1  0  0  0  0 
 15 42  1  0  0  0  0 
 16 39  1  0  0  0  0 
 16 43  1  0  0  0  0 
 16 44  1  0  0  0  0 
 17 19  1  0  0  0  0 
 19 20  2  0  0  0  0 
 19 21  1  0  0  0  0 
 20 22  1  0  0  0  0 
 20 45  1  0  0  0  0 
 21 23  2  0  0  0  0 
 21 46  1  0  0  0  0 
 22 24  2  0  0  0  0 
 22 48  1  0  0  0  0 
 23 24  1  0  0  0  0 
 23 49  1  0  0  0  0 
 24 50  1  0  0  0  0 
M  END
> <cdk:Title>
4922

> <cdk:Remark>
null

> <PUBCHEM_COMPOUND_CID>
4922

> <PUBCHEM_COMPOUND_CANONICALIZED>
1

> <PUBCHEM_CACTVS_COMPLEXITY>
413

> <PUBCHEM_CACTVS_HBOND_ACCEPTOR>
4

> <PUBCHEM_CACTVS_HBOND_DONOR>
2

> <PUBCHEM_CACTVS_ROTATABLE_BOND>
10

> <PUBCHEM_CACTVS_SUBSKEYS>
AAADceB7OAAAAAAAAAAAAAAAAAAAAAAAAAAwAAAAAAAAAAABAAAAHgAQCAAADCjBmAQyCIPAAgCIAiHSGACCAAAkAAAIiIGIBMgIYDKAlTGUYQhklgCIiYe8nwKOAAAAAAAAAAAAAAAAAAAAAAAAAAAAAA==

> <PUBCHEM_IUPAC_OPENEYE_NAME>
4-benzamido-5-(dipropylamino)-5-oxo-pentanoic acid

> <PUBCHEM_IUPAC_CAS_NAME>
4-benzamido-5-(dipropylamino)-5-oxopentanoic acid

> <PUBCHEM_IUPAC_NAME>
4-benzamido-5-(dipropylamino)-5-oxopentanoic acid

> <PUBCHEM_IUPAC_SYSTEMATIC_NAME>
4-benzamido-5-(dipropylamino)-5-oxidanylidene-pentanoic acid

> <PUBCHEM_IUPAC_TRADITIONAL_NAME>
4-benzamido-5-(dipropylamino)-5-keto-valeric acid

> <PUBCHEM_IUPAC_INCHI>
InChI=1S/C18H26N2O4/c1-3-12-20(13-4-2)18(24)15(10-11-16(21)22)19-17(23)14-8-6-5-7-9-14/h5-9,15H,3-4,10-13H2,1-2H3,(H,19,23)(H,21,22)

> <PUBCHEM_IUPAC_INCHIKEY>
DGMKFQYCZXERLX-UHFFFAOYSA-N

> <PUBCHEM_XLOGP3_AA>
2.4

> <PUBCHEM_EXACT_MASS>
334.189257

> <PUBCHEM_MOLECULAR_FORMULA>
C18H26N2O4

> <PUBCHEM_MOLECULAR_WEIGHT>
334.41004

> <PUBCHEM_OPENEYE_CAN_SMILES>
CCCN(CCC)C(=O)C(CCC(=O)O)NC(=O)C1=CC=CC=C1

> <PUBCHEM_OPENEYE_ISO_SMILES>
CCCN(CCC)C(=O)C(CCC(=O)O)NC(=O)C1=CC=CC=C1

> <PUBCHEM_CACTVS_TPSA>
86.7

> <PUBCHEM_MONOISOTOPIC_WEIGHT>
334.189257

> <PUBCHEM_TOTAL_CHARGE>
0

> <PUBCHEM_HEAVY_ATOM_COUNT>
24

> <PUBCHEM_ATOM_DEF_STEREO_COUNT>
0

> <PUBCHEM_ATOM_UDEF_STEREO_COUNT>
1

> <PUBCHEM_BOND_DEF_STEREO_COUNT>
0

> <PUBCHEM_BOND_UDEF_STEREO_COUNT>
0

> <PUBCHEM_ISOTOPIC_ATOM_COUNT>
0

> <PUBCHEM_COMPONENT_COUNT>
1

> <PUBCHEM_CACTVS_TAUTO_COUNT>
2

> <PUBCHEM_COORDINATE_TYPE>
1
5
255

> <PUBCHEM_BONDANNOTATIONS>
19  20  8
19  21  8
20  22  8
21  23  8
22  24  8
23  24  8
7  9  3

> <DRUG_ID>
w29

> <DRUG_NAME>
Proglumide

$$$$
38409
  CDK     0927151942
null
 28 29  0  0  0  0  0  0  0  0999 V2000
    2.0000    1.4588    0.0000 Cl  0  0  0  0  0  0  0  0  0  0  0  0
    2.0000   -0.5412    0.0000 Cl  0  0  0  0  0  0  0  0  0  0  0  0
    5.5116    2.5520    0.0000 S   0  0  0  0  0  0  0  0  0  0  0  0
    3.7320   -1.5412    0.0000 O   0  0  0  0  0  0  0  0  0  0  0  0
    2.8660    2.9588    0.0000 O   0  0  0  0  0  0  0  0  0  0  0  0
    5.4641   -3.5412    0.0000 O   0  0  0  0  0  0  0  0  0  0  0  0
    3.7320   -3.5412    0.0000 O   0  0  0  0  0  0  0  0  0  0  0  0
    3.7320    1.4588    0.0000 C   0  0  0  0  0  0  0  0  0  0  0  0
    3.7320   -0.5412    0.0000 C   0  0  0  0  0  0  0  0  0  0  0  0
    2.8660    0.9588    0.0000 C   0  0  0  0  0  0  0  0  0  0  0  0
    4.5981    0.9588    0.0000 C   0  0  0  0  0  0  0  0  0  0  0  0
    3.7320    2.4588    0.0000 C   0  0  0  0  0  0  0  0  0  0  0  0
    2.8660   -0.0412    0.0000 C   0  0  0  0  0  0  0  0  0  0  0  0
    4.5981   -0.0412    0.0000 C   0  0  0  0  0  0  0  0  0  0  0  0
    4.5981    2.9588    0.0000 C   0  0  0  0  0  0  0  0  0  0  0  0
    4.7026    3.9533    0.0000 C   0  0  0  0  0  0  0  0  0  0  0  0
    4.5981   -2.0412    0.0000 C   0  0  0  0  0  0  0  0  0  0  0  0
    5.6808    4.1612    0.0000 C   0  0  0  0  0  0  0  0  0  0  0  0
    6.1808    3.2952    0.0000 C   0  0  0  0  0  0  0  0  0  0  0  0
    4.5981   -3.0412    0.0000 C   0  0  0  0  0  0  0  0  0  0  0  0
    5.1350    1.2688    0.0000 H   0  0  0  0  0  0  0  0  0  0  0  0
    5.1350   -0.3512    0.0000 H   0  0  0  0  0  0  0  0  0  0  0  0
    4.2419    4.3682    0.0000 H   0  0  0  0  0  0  0  0  0  0  0  0
    5.2087   -2.1489    0.0000 H   0  0  0  0  0  0  0  0  0  0  0  0
    4.8101   -1.4586    0.0000 H   0  0  0  0  0  0  0  0  0  0  0  0
    5.9329    4.7276    0.0000 H   0  0  0  0  0  0  0  0  0  0  0  0
    6.7974    3.2304    0.0000 H   0  0  0  0  0  0  0  0  0  0  0  0
    5.4641   -4.1612    0.0000 H   0  0  0  0  0  0  0  0  0  0  0  0
  1 10  1  0  0  0  0 
  2 13  1  0  0  0  0 
  3 15  1  0  0  0  0 
  3 19  1  0  0  0  0 
  4  9  1  0  0  0  0 
  4 17  1  0  0  0  0 
  5 12  2  0  0  0  0 
  6 20  1  0  0  0  0 
  6 28  1  0  0  0  0 
  7 20  2  0  0  0  0 
  8 10  2  0  0  0  0 
  8 11  1  0  0  0  0 
  8 12  1  0  0  0  0 
  9 13  2  0  0  0  0 
  9 14  1  0  0  0  0 
 10 13  1  0  0  0  0 
 11 14  2  0  0  0  0 
 11 21  1  0  0  0  0 
 12 15  1  0  0  0  0 
 14 22  1  0  0  0  0 
 15 16  2  0  0  0  0 
 16 18  1  0  0  0  0 
 16 23  1  0  0  0  0 
 17 20  1  0  0  0  0 
 17 24  1  0  0  0  0 
 17 25  1  0  0  0  0 
 18 19  2  0  0  0  0 
 18 26  1  0  0  0  0 
 19 27  1  0  0  0  0 
M  END
> <cdk:Title>
38409

> <cdk:Remark>
null

> <PUBCHEM_COMPOUND_CID>
38409

> <PUBCHEM_COMPOUND_CANONICALIZED>
1

> <PUBCHEM_CACTVS_COMPLEXITY>
379

> <PUBCHEM_CACTVS_HBOND_ACCEPTOR>
5

> <PUBCHEM_CACTVS_HBOND_DONOR>
1

> <PUBCHEM_CACTVS_ROTATABLE_BOND>
5

> <PUBCHEM_CACTVS_SUBSKEYS>
AAADccBwOABGAAAAAAAAAAAAAAAAASAAAAAwAAAAAAAAAAABwAAAGgYACAAADAak2CKwD4AABgiMAqDSCAIDCIAkLFBIillGC8gNJjOlNx6COSCkwBErrYeIzODOIAAAIQABCARAAABCAAIQCAAAAAAAAA==

> <PUBCHEM_IUPAC_OPENEYE_NAME>
2-[2,3-dichloro-4-(thiophene-2-carbonyl)phenoxy]acetic acid

> <PUBCHEM_IUPAC_CAS_NAME>
2-[2,3-dichloro-4-[oxo(thiophen-2-yl)methyl]phenoxy]acetic acid

> <PUBCHEM_IUPAC_NAME>
2-[2,3-dichloro-4-(thiophene-2-carbonyl)phenoxy]acetic acid

> <PUBCHEM_IUPAC_SYSTEMATIC_NAME>
2-[2,3-bis(chloranyl)-4-thiophen-2-ylcarbonyl-phenoxy]ethanoic acid

> <PUBCHEM_IUPAC_TRADITIONAL_NAME>
2-[2,3-dichloro-4-(2-thenoyl)phenoxy]acetic acid

> <PUBCHEM_IUPAC_INCHI>
InChI=1S/C13H8Cl2O4S/c14-11-7(13(18)9-2-1-5-20-9)3-4-8(12(11)15)19-6-10(16)17/h1-5H,6H2,(H,16,17)

> <PUBCHEM_IUPAC_INCHIKEY>
AGHANLSBXUWXTB-UHFFFAOYSA-N

> <PUBCHEM_XLOGP3_AA>
4.1

> <PUBCHEM_EXACT_MASS>
329.952035

> <PUBCHEM_MOLECULAR_FORMULA>
C13H8Cl2O4S

> <PUBCHEM_MOLECULAR_WEIGHT>
331.17122

> <PUBCHEM_OPENEYE_CAN_SMILES>
C1=CSC(=C1)C(=O)C2=C(C(=C(C=C2)OCC(=O)O)Cl)Cl

> <PUBCHEM_OPENEYE_ISO_SMILES>
C1=CSC(=C1)C(=O)C2=C(C(=C(C=C2)OCC(=O)O)Cl)Cl

> <PUBCHEM_CACTVS_TPSA>
91.8

> <PUBCHEM_MONOISOTOPIC_WEIGHT>
329.952035

> <PUBCHEM_TOTAL_CHARGE>
0

> <PUBCHEM_HEAVY_ATOM_COUNT>
20

> <PUBCHEM_ATOM_DEF_STEREO_COUNT>
0

> <PUBCHEM_ATOM_UDEF_STEREO_COUNT>
0

> <PUBCHEM_BOND_DEF_STEREO_COUNT>
0

> <PUBCHEM_BOND_UDEF_STEREO_COUNT>
0

> <PUBCHEM_ISOTOPIC_ATOM_COUNT>
0

> <PUBCHEM_COMPONENT_COUNT>
1

> <PUBCHEM_CACTVS_TAUTO_COUNT>
1

> <PUBCHEM_COORDINATE_TYPE>
1
5
255

> <PUBCHEM_BONDANNOTATIONS>
10  13  8
11  14  8
15  16  8
16  18  8
18  19  8
3  15  8
3  19  8
8  10  8
8  11  8
9  13  8
9  14  8

> <DRUG_ID>
w3

> <DRUG_NAME>
Ticrynafen

$$$$
33176
  CDK     0927151942
null
 41 43  0  0  0  0  0  0  0  0999 V2000
   10.6350    2.9768    0.0000 Cl  0  0  0  0  0  0  0  0  0  0  0  0
    2.8660   -0.6033    0.0000 O   0  0  0  0  0  0  0  0  0  0  0  0
    6.0531    2.8962    0.0000 O   0  0  0  0  0  0  0  0  0  0  0  0
    6.3638   -3.0534    0.0000 O   0  0  0  0  0  0  0  0  0  0  0  0
    5.0746   -1.8967    0.0000 O   0  0  0  0  0  0  0  0  0  0  0  0
    6.4103   -0.4081    0.0000 N   0  0  0  0  0  0  0  0  0  0  0  0
    5.4641   -0.1033    0.0000 C   0  0  0  0  0  0  0  0  0  0  0  0
    5.4641    0.8967    0.0000 C   0  0  0  0  0  0  0  0  0  0  0  0
    6.9939    0.3967    0.0000 C   0  0  0  0  0  0  0  0  0  0  0  0
    6.4103    1.2014    0.0000 C   0  0  0  0  0  0  0  0  0  0  0  0
    6.7210   -1.3586    0.0000 C   0  0  0  0  0  0  0  0  0  0  0  0
    4.5981   -0.6033    0.0000 C   0  0  0  0  0  0  0  0  0  0  0  0
    4.5981    1.3967    0.0000 C   0  0  0  0  0  0  0  0  0  0  0  0
    7.9939    0.3967    0.0000 C   0  0  0  0  0  0  0  0  0  0  0  0
    6.7210    2.1519    0.0000 C   0  0  0  0  0  0  0  0  0  0  0  0
    3.7320   -0.1033    0.0000 C   0  0  0  0  0  0  0  0  0  0  0  0
    3.7320    0.8967    0.0000 C   0  0  0  0  0  0  0  0  0  0  0  0
    7.6995    2.3581    0.0000 C   0  0  0  0  0  0  0  0  0  0  0  0
    6.0531   -2.1029    0.0000 C   0  0  0  0  0  0  0  0  0  0  0  0
    8.3673    1.6138    0.0000 C   0  0  0  0  0  0  0  0  0  0  0  0
    8.0102    3.3087    0.0000 C   0  0  0  0  0  0  0  0  0  0  0  0
    9.3458    1.8200    0.0000 C   0  0  0  0  0  0  0  0  0  0  0  0
    8.9887    3.5149    0.0000 C   0  0  0  0  0  0  0  0  0  0  0  0
    9.6565    2.7706    0.0000 C   0  0  0  0  0  0  0  0  0  0  0  0
    2.0000   -0.1033    0.0000 C   0  0  0  0  0  0  0  0  0  0  0  0
    7.1035   -1.8465    0.0000 H   0  0  0  0  0  0  0  0  0  0  0  0
    7.2679   -1.0666    0.0000 H   0  0  0  0  0  0  0  0  0  0  0  0
    4.5981   -1.2233    0.0000 H   0  0  0  0  0  0  0  0  0  0  0  0
    4.5981    2.0167    0.0000 H   0  0  0  0  0  0  0  0  0  0  0  0
    7.9939   -0.2233    0.0000 H   0  0  0  0  0  0  0  0  0  0  0  0
    8.6139    0.3967    0.0000 H   0  0  0  0  0  0  0  0  0  0  0  0
    7.9939    1.0167    0.0000 H   0  0  0  0  0  0  0  0  0  0  0  0
    3.1951    1.2067    0.0000 H   0  0  0  0  0  0  0  0  0  0  0  0
    8.1747    1.0245    0.0000 H   0  0  0  0  0  0  0  0  0  0  0  0
    7.5961    3.7701    0.0000 H   0  0  0  0  0  0  0  0  0  0  0  0
    9.7599    1.3586    0.0000 H   0  0  0  0  0  0  0  0  0  0  0  0
    9.1813    4.1042    0.0000 H   0  0  0  0  0  0  0  0  0  0  0  0
    2.3100    0.4336    0.0000 H   0  0  0  0  0  0  0  0  0  0  0  0
    1.4631    0.2067    0.0000 H   0  0  0  0  0  0  0  0  0  0  0  0
    1.6900   -0.6403    0.0000 H   0  0  0  0  0  0  0  0  0  0  0  0
    5.9497   -3.5149    0.0000 H   0  0  0  0  0  0  0  0  0  0  0  0
  1 24  1  0  0  0  0 
  2 16  1  0  0  0  0 
  2 25  1  0  0  0  0 
  3 15  2  0  0  0  0 
  4 19  1  0  0  0  0 
  4 41  1  0  0  0  0 
  5 19  2  0  0  0  0 
  6  7  1  0  0  0  0 
  6  9  1  0  0  0  0 
  6 11  1  0  0  0  0 
  7  8  2  0  0  0  0 
  7 12  1  0  0  0  0 
  8 10  1  0  0  0  0 
  8 13  1  0  0  0  0 
  9 10  2  0  0  0  0 
  9 14  1  0  0  0  0 
 10 15  1  0  0  0  0 
 11 19  1  0  0  0  0 
 11 26  1  0  0  0  0 
 11 27  1  0  0  0  0 
 12 16  2  0  0  0  0 
 12 28  1  0  0  0  0 
 13 17  2  0  0  0  0 
 13 29  1  0  0  0  0 
 14 30  1  0  0  0  0 
 14 31  1  0  0  0  0 
 14 32  1  0  0  0  0 
 15 18  1  0  0  0  0 
 16 17  1  0  0  0  0 
 17 33  1  0  0  0  0 
 18 20  2  0  0  0  0 
 18 21  1  0  0  0  0 
 20 22  1  0  0  0  0 
 20 34  1  0  0  0  0 
 21 23  2  0  0  0  0 
 21 35  1  0  0  0  0 
 22 24  2  0  0  0  0 
 22 36  1  0  0  0  0 
 23 24  1  0  0  0  0 
 23 37  1  0  0  0  0 
 25 38  1  0  0  0  0 
 25 39  1  0  0  0  0 
 25 40  1  0  0  0  0 
M  END
> <cdk:Title>
33176

> <cdk:Remark>
null

> <PUBCHEM_COMPOUND_CID>
33176

> <PUBCHEM_COMPOUND_CANONICALIZED>
1

> <PUBCHEM_CACTVS_COMPLEXITY>
506

> <PUBCHEM_CACTVS_HBOND_ACCEPTOR>
4

> <PUBCHEM_CACTVS_HBOND_DONOR>
1

> <PUBCHEM_CACTVS_ROTATABLE_BOND>
5

> <PUBCHEM_CACTVS_SUBSKEYS>
AAADceB6OAAEAAAAAAAAAAAAAAAAAWAAAAAwYAAAAAAAAFgB9AAAHgIACAAADA7BniYyzvMMFgCoA6TyTACCiCAlJyAI2CG+btgOJvrFt7uEMahmwBnY6cec2POOpAAAAgACAABIAAAEAAQAAAAAAAAAAA==

> <PUBCHEM_IUPAC_OPENEYE_NAME>
2-[3-(4-chlorobenzoyl)-6-methoxy-2-methyl-indol-1-yl]acetic acid

> <PUBCHEM_IUPAC_CAS_NAME>
2-[3-[(4-chlorophenyl)-oxomethyl]-6-methoxy-2-methyl-1-indolyl]acetic acid

> <PUBCHEM_IUPAC_NAME>
2-[3-(4-chlorobenzoyl)-6-methoxy-2-methylindol-1-yl]acetic acid

> <PUBCHEM_IUPAC_SYSTEMATIC_NAME>
2-[3-(4-chlorophenyl)carbonyl-6-methoxy-2-methyl-indol-1-yl]ethanoic acid

> <PUBCHEM_IUPAC_TRADITIONAL_NAME>
2-[3-(4-chlorobenzoyl)-6-methoxy-2-methyl-indol-1-yl]acetic acid

> <PUBCHEM_IUPAC_INCHI>
InChI=1S/C19H16ClNO4/c1-11-18(19(24)12-3-5-13(20)6-4-12)15-8-7-14(25-2)9-16(15)21(11)10-17(22)23/h3-9H,10H2,1-2H3,(H,22,23)

> <PUBCHEM_IUPAC_INCHIKEY>
DGMZLCLHHVYDIS-UHFFFAOYSA-N

> <PUBCHEM_XLOGP3_AA>
4

> <PUBCHEM_EXACT_MASS>
357.076786

> <PUBCHEM_MOLECULAR_FORMULA>
C19H16ClNO4

> <PUBCHEM_MOLECULAR_WEIGHT>
357.78764

> <PUBCHEM_OPENEYE_CAN_SMILES>
CC1=C(C2=C(N1CC(=O)O)C=C(C=C2)OC)C(=O)C3=CC=C(C=C3)Cl

> <PUBCHEM_OPENEYE_ISO_SMILES>
CC1=C(C2=C(N1CC(=O)O)C=C(C=C2)OC)C(=O)C3=CC=C(C=C3)Cl

> <PUBCHEM_CACTVS_TPSA>
68.5

> <PUBCHEM_MONOISOTOPIC_WEIGHT>
357.076786

> <PUBCHEM_TOTAL_CHARGE>
0

> <PUBCHEM_HEAVY_ATOM_COUNT>
25

> <PUBCHEM_ATOM_DEF_STEREO_COUNT>
0

> <PUBCHEM_ATOM_UDEF_STEREO_COUNT>
0

> <PUBCHEM_BOND_DEF_STEREO_COUNT>
0

> <PUBCHEM_BOND_UDEF_STEREO_COUNT>
0

> <PUBCHEM_ISOTOPIC_ATOM_COUNT>
0

> <PUBCHEM_COMPONENT_COUNT>
1

> <PUBCHEM_CACTVS_TAUTO_COUNT>
1

> <PUBCHEM_COORDINATE_TYPE>
1
5
255

> <PUBCHEM_BONDANNOTATIONS>
12  16  8
13  17  8
16  17  8
18  20  8
18  21  8
20  22  8
21  23  8
22  24  8
23  24  8
6  7  8
6  9  8
7  12  8
7  8  8
8  10  8
8  13  8
9  10  8

> <DRUG_ID>
w30

> <DRUG_NAME>
Clometacin

$$$$
3111
  CDK     0927151942
null
 38 39  0  0  0  0  0  0  0  0999 V2000
    5.0289    2.8475    0.0000 S   0  0  0  0  0  0  0  0  0  0  0  0
    5.5202   -0.9442    0.0000 O   0  0  0  0  0  0  0  0  0  0  0  0
    5.6167    3.6565    0.0000 O   0  0  0  0  0  0  0  0  0  0  0  0
    4.2199    3.4353    0.0000 O   0  0  0  0  0  0  0  0  0  0  0  0
    5.8379    2.2597    0.0000 O   0  0  0  0  0  0  0  0  0  0  0  0
    2.9511   -0.6351    0.0000 N   0  0  3  0  0  0  0  0  0  0  0  0
    3.7601   -1.2229    0.0000 N   0  0  0  0  0  0  0  0  0  0  0  0
    4.8479    1.1249    0.0000 N   0  0  3  0  0  0  0  0  0  0  0  0
    4.2601    0.3159    0.0000 C   0  0  0  0  0  0  0  0  0  0  0  0
    3.2601    0.3159    0.0000 C   0  0  0  0  0  0  0  0  0  0  0  0
    4.5691   -0.6351    0.0000 C   0  0  0  0  0  0  0  0  0  0  0  0
    4.4411    2.0385    0.0000 C   0  0  0  0  0  0  0  0  0  0  0  0
    3.7601   -2.2229    0.0000 C   0  0  0  0  0  0  0  0  0  0  0  0
    2.6723    1.1249    0.0000 C   0  0  0  0  0  0  0  0  0  0  0  0
    2.0000   -0.9442    0.0000 C   0  0  0  0  0  0  0  0  0  0  0  0
    5.8424    1.0204    0.0000 C   0  0  0  0  0  0  0  0  0  0  0  0
    2.8940   -2.7229    0.0000 C   0  0  0  0  0  0  0  0  0  0  0  0
    4.6261   -2.7229    0.0000 C   0  0  0  0  0  0  0  0  0  0  0  0
    2.8940   -3.7229    0.0000 C   0  0  0  0  0  0  0  0  0  0  0  0
    4.6261   -3.7229    0.0000 C   0  0  0  0  0  0  0  0  0  0  0  0
    3.7601   -4.2229    0.0000 C   0  0  0  0  0  0  0  0  0  0  0  0
    4.0104    2.4845    0.0000 H   0  0  0  0  0  0  0  0  0  0  0  0
    3.9271    1.6918    0.0000 H   0  0  0  0  0  0  0  0  0  0  0  0
    3.1739    1.4894    0.0000 H   0  0  0  0  0  0  0  0  0  0  0  0
    2.3079    1.6265    0.0000 H   0  0  0  0  0  0  0  0  0  0  0  0
    2.1707    0.7605    0.0000 H   0  0  0  0  0  0  0  0  0  0  0  0
    1.8084   -0.3545    0.0000 H   0  0  0  0  0  0  0  0  0  0  0  0
    1.4103   -1.1357    0.0000 H   0  0  0  0  0  0  0  0  0  0  0  0
    2.1916   -1.5338    0.0000 H   0  0  0  0  0  0  0  0  0  0  0  0
    5.7776    0.4038    0.0000 H   0  0  0  0  0  0  0  0  0  0  0  0
    6.4590    0.9556    0.0000 H   0  0  0  0  0  0  0  0  0  0  0  0
    5.9072    1.6370    0.0000 H   0  0  0  0  0  0  0  0  0  0  0  0
    2.3571   -2.4129    0.0000 H   0  0  0  0  0  0  0  0  0  0  0  0
    5.1630   -2.4129    0.0000 H   0  0  0  0  0  0  0  0  0  0  0  0
    2.3571   -4.0329    0.0000 H   0  0  0  0  0  0  0  0  0  0  0  0
    5.1630   -4.0329    0.0000 H   0  0  0  0  0  0  0  0  0  0  0  0
    3.7601   -4.8429    0.0000 H   0  0  0  0  0  0  0  0  0  0  0  0
    5.3645    4.2229    0.0000 H   0  0  0  0  0  0  0  0  0  0  0  0
  1  3  1  0  0  0  0 
  1  4  2  0  0  0  0 
  1  5  2  0  0  0  0 
  1 12  1  0  0  0  0 
  2 11  2  0  0  0  0 
  3 38  1  0  0  0  0 
  6  7  1  0  0  0  0 
  6 10  1  0  0  0  0 
  6 15  1  0  0  0  0 
  7 11  1  0  0  0  0 
  7 13  1  0  0  0  0 
  8  9  1  0  0  0  0 
  8 12  1  0  0  0  0 
  8 16  1  0  0  0  0 
  9 10  2  0  0  0  0 
  9 11  1  0  0  0  0 
 10 14  1  0  0  0  0 
 12 22  1  0  0  0  0 
 12 23  1  0  0  0  0 
 13 17  2  0  0  0  0 
 13 18  1  0  0  0  0 
 14 24  1  0  0  0  0 
 14 25  1  0  0  0  0 
 14 26  1  0  0  0  0 
 15 27  1  0  0  0  0 
 15 28  1  0  0  0  0 
 15 29  1  0  0  0  0 
 16 30  1  0  0  0  0 
 16 31  1  0  0  0  0 
 16 32  1  0  0  0  0 
 17 19  1  0  0  0  0 
 17 33  1  0  0  0  0 
 18 20  2  0  0  0  0 
 18 34  1  0  0  0  0 
 19 21  2  0  0  0  0 
 19 35  1  0  0  0  0 
 20 21  1  0  0  0  0 
 20 36  1  0  0  0  0 
 21 37  1  0  0  0  0 
M  END
> <cdk:Title>
3111

> <cdk:Remark>
null

> <PUBCHEM_COMPOUND_CID>
3111

> <PUBCHEM_COMPOUND_CANONICALIZED>
1

> <PUBCHEM_CACTVS_COMPLEXITY>
546

> <PUBCHEM_CACTVS_HBOND_ACCEPTOR>
6

> <PUBCHEM_CACTVS_HBOND_DONOR>
1

> <PUBCHEM_CACTVS_ROTATABLE_BOND>
4

> <PUBCHEM_CACTVS_SUBSKEYS>
AAADceBzOABAAAAAAAAAAAAAAAAAAQAAAAAwAAAAAAAAAAABAAAAHgQICAAACAiBkASywIMAAIKIACVSUHCKBAAhAgAaiACIZMgIYCLAkbGUIAhghADIyUcQAAAAAAAAAAAAAAAAAAAAAAAAAAAAAAAAAA==

> <PUBCHEM_IUPAC_OPENEYE_NAME>
[(1,5-dimethyl-3-oxo-2-phenyl-pyrazol-4-yl)-methyl-amino]methanesulfonic acid

> <PUBCHEM_IUPAC_CAS_NAME>
[(1,5-dimethyl-3-oxo-2-phenyl-4-pyrazolyl)-methylamino]methanesulfonic acid

> <PUBCHEM_IUPAC_NAME>
[(1,5-dimethyl-3-oxo-2-phenylpyrazol-4-yl)-methylamino]methanesulfonic acid

> <PUBCHEM_IUPAC_SYSTEMATIC_NAME>
[(1,5-dimethyl-3-oxidanylidene-2-phenyl-pyrazol-4-yl)-methyl-amino]methanesulfonic acid

> <PUBCHEM_IUPAC_TRADITIONAL_NAME>
[(3-keto-1,5-dimethyl-2-phenyl-3-pyrazolin-4-yl)-methyl-amino]methanesulfonic acid

> <PUBCHEM_IUPAC_INCHI>
InChI=1S/C13H17N3O4S/c1-10-12(14(2)9-21(18,19)20)13(17)16(15(10)3)11-7-5-4-6-8-11/h4-8H,9H2,1-3H3,(H,18,19,20)

> <PUBCHEM_IUPAC_INCHIKEY>
LVWZTYCIRDMTEY-UHFFFAOYSA-N

> <PUBCHEM_XLOGP3>
0

> <PUBCHEM_EXACT_MASS>
311.093977

> <PUBCHEM_MOLECULAR_FORMULA>
C13H17N3O4S

> <PUBCHEM_MOLECULAR_WEIGHT>
311.35678

> <PUBCHEM_OPENEYE_CAN_SMILES>
CC1=C(C(=O)N(N1C)C2=CC=CC=C2)N(C)CS(=O)(=O)O

> <PUBCHEM_OPENEYE_ISO_SMILES>
CC1=C(C(=O)N(N1C)C2=CC=CC=C2)N(C)CS(=O)(=O)O

> <PUBCHEM_CACTVS_TPSA>
89.5

> <PUBCHEM_MONOISOTOPIC_WEIGHT>
311.093977

> <PUBCHEM_TOTAL_CHARGE>
0

> <PUBCHEM_HEAVY_ATOM_COUNT>
21

> <PUBCHEM_ATOM_DEF_STEREO_COUNT>
0

> <PUBCHEM_ATOM_UDEF_STEREO_COUNT>
0

> <PUBCHEM_BOND_DEF_STEREO_COUNT>
0

> <PUBCHEM_BOND_UDEF_STEREO_COUNT>
0

> <PUBCHEM_ISOTOPIC_ATOM_COUNT>
0

> <PUBCHEM_COMPONENT_COUNT>
1

> <PUBCHEM_CACTVS_TAUTO_COUNT>
1

> <PUBCHEM_COORDINATE_TYPE>
1
5
255

> <PUBCHEM_BONDANNOTATIONS>
13  17  8
13  18  8
17  19  8
18  20  8
19  21  8
20  21  8
6  10  8
6  7  8
7  11  8
9  10  8
9  11  8

> <DRUG_ID>
w31

> <DRUG_NAME>
Dipyrone

$$$$
4786
  CDK     0927151942
null
 24 24  0  0  0  0  0  0  0  0999 V2000
    2.0000    1.0950    0.0000 O   0  0  0  0  0  0  0  0  0  0  0  0
    3.7320    2.0950    0.0000 N   0  0  0  0  0  0  0  0  0  0  0  0
    2.8660    0.5950    0.0000 C   0  0  3  0  0  0  0  0  0  0  0  0
    3.7320    1.0950    0.0000 C   0  0  3  0  0  0  0  0  0  0  0  0
    2.8660   -0.4050    0.0000 C   0  0  0  0  0  0  0  0  0  0  0  0
    4.5981    0.5950    0.0000 C   0  0  0  0  0  0  0  0  0  0  0  0
    2.0000   -0.9050    0.0000 C   0  0  0  0  0  0  0  0  0  0  0  0
    3.7320   -0.9050    0.0000 C   0  0  0  0  0  0  0  0  0  0  0  0
    2.0000   -1.9050    0.0000 C   0  0  0  0  0  0  0  0  0  0  0  0
    3.7320   -1.9050    0.0000 C   0  0  0  0  0  0  0  0  0  0  0  0
    2.8660   -2.4050    0.0000 C   0  0  0  0  0  0  0  0  0  0  0  0
    2.8660    1.4450    0.0000 H   0  0  0  0  0  0  0  0  0  0  0  0
    4.4682    1.5200    0.0000 H   0  0  0  0  0  0  0  0  0  0  0  0
    4.2881    0.0581    0.0000 H   0  0  0  0  0  0  0  0  0  0  0  0
    5.1350    0.2850    0.0000 H   0  0  0  0  0  0  0  0  0  0  0  0
    4.9081    1.1319    0.0000 H   0  0  0  0  0  0  0  0  0  0  0  0
    1.4631   -0.5950    0.0000 H   0  0  0  0  0  0  0  0  0  0  0  0
    4.2690   -0.5950    0.0000 H   0  0  0  0  0  0  0  0  0  0  0  0
    4.2690    2.4050    0.0000 H   0  0  0  0  0  0  0  0  0  0  0  0
    3.1951    2.4050    0.0000 H   0  0  0  0  0  0  0  0  0  0  0  0
    2.0000    1.7150    0.0000 H   0  0  0  0  0  0  0  0  0  0  0  0
    1.4631   -2.2150    0.0000 H   0  0  0  0  0  0  0  0  0  0  0  0
    4.2690   -2.2150    0.0000 H   0  0  0  0  0  0  0  0  0  0  0  0
    2.8660   -3.0250    0.0000 H   0  0  0  0  0  0  0  0  0  0  0  0
  1  3  1  0  0  0  0 
  1 21  1  0  0  0  0 
  2  4  1  0  0  0  0 
  2 19  1  0  0  0  0 
  2 20  1  0  0  0  0 
  3  4  1  0  0  0  0 
  3  5  1  0  0  0  0 
  3 12  1  0  0  0  0 
  4  6  1  0  0  0  0 
  4 13  1  0  0  0  0 
  5  7  2  0  0  0  0 
  5  8  1  0  0  0  0 
  6 14  1  0  0  0  0 
  6 15  1  0  0  0  0 
  6 16  1  0  0  0  0 
  7  9  1  0  0  0  0 
  7 17  1  0  0  0  0 
  8 10  2  0  0  0  0 
  8 18  1  0  0  0  0 
  9 11  2  0  0  0  0 
  9 22  1  0  0  0  0 
 10 11  1  0  0  0  0 
 10 23  1  0  0  0  0 
 11 24  1  0  0  0  0 
M  END
> <cdk:Title>
4786

> <cdk:Remark>
null

> <PUBCHEM_COMPOUND_CID>
4786

> <PUBCHEM_COMPOUND_CANONICALIZED>
1

> <PUBCHEM_CACTVS_COMPLEXITY>
110

> <PUBCHEM_CACTVS_HBOND_ACCEPTOR>
2

> <PUBCHEM_CACTVS_HBOND_DONOR>
2

> <PUBCHEM_CACTVS_ROTATABLE_BOND>
2

> <PUBCHEM_CACTVS_SUBSKEYS>
AAADccByIAAAAAAAAAAAAAAAAAAAAAAAAAAwAAAAAAAAAAABAAAAHgAQCAAADDzhmAYyAIBAAgCAAiBCAAACAAAgAAAIiIAACIgKNiKAkRGAcAAk0AEImAeQwKAOAAAAAAAAAAAAAAAAAAAAAAAAAAAAAA==

> <PUBCHEM_IUPAC_OPENEYE_NAME>
2-amino-1-phenyl-propan-1-ol

> <PUBCHEM_IUPAC_CAS_NAME>
2-amino-1-phenyl-1-propanol

> <PUBCHEM_IUPAC_NAME>
2-amino-1-phenylpropan-1-ol

> <PUBCHEM_IUPAC_SYSTEMATIC_NAME>
2-azanyl-1-phenyl-propan-1-ol

> <PUBCHEM_IUPAC_TRADITIONAL_NAME>
2-amino-1-phenyl-propan-1-ol

> <PUBCHEM_IUPAC_INCHI>
InChI=1S/C9H13NO/c1-7(10)9(11)8-5-3-2-4-6-8/h2-7,9,11H,10H2,1H3

> <PUBCHEM_IUPAC_INCHIKEY>
DLNKOYKMWOXYQA-UHFFFAOYSA-N

> <PUBCHEM_XLOGP3>
0.8

> <PUBCHEM_EXACT_MASS>
151.099714

> <PUBCHEM_MOLECULAR_FORMULA>
C9H13NO

> <PUBCHEM_MOLECULAR_WEIGHT>
151.20562

> <PUBCHEM_OPENEYE_CAN_SMILES>
CC(C(C1=CC=CC=C1)O)N

> <PUBCHEM_OPENEYE_ISO_SMILES>
CC(C(C1=CC=CC=C1)O)N

> <PUBCHEM_CACTVS_TPSA>
46.2

> <PUBCHEM_MONOISOTOPIC_WEIGHT>
151.099714

> <PUBCHEM_TOTAL_CHARGE>
0

> <PUBCHEM_HEAVY_ATOM_COUNT>
11

> <PUBCHEM_ATOM_DEF_STEREO_COUNT>
0

> <PUBCHEM_ATOM_UDEF_STEREO_COUNT>
2

> <PUBCHEM_BOND_DEF_STEREO_COUNT>
0

> <PUBCHEM_BOND_UDEF_STEREO_COUNT>
0

> <PUBCHEM_ISOTOPIC_ATOM_COUNT>
0

> <PUBCHEM_COMPONENT_COUNT>
1

> <PUBCHEM_CACTVS_TAUTO_COUNT>
1

> <PUBCHEM_COORDINATE_TYPE>
1
5
255

> <PUBCHEM_BONDANNOTATIONS>
10  11  8
3  12  3
4  13  3
5  7  8
5  8  8
7  9  8
8  10  8
9  11  8

> <DRUG_ID>
w32

> <DRUG_NAME>
Phenylpropanolamine

$$$$
4883
  CDK     0927151942
null
 41 41  0  0  0  0  0  0  0  0999 V2000
    5.4641   -0.5000    0.0000 O   0  0  0  0  0  0  0  0  0  0  0  0
    5.4641   -2.5000    0.0000 O   0  0  0  0  0  0  0  0  0  0  0  0
    7.1962    3.5000    0.0000 O   0  0  0  0  0  0  0  0  0  0  0  0
    3.7320   -3.5000    0.0000 N   0  0  0  0  0  0  0  0  0  0  0  0
    5.4641    3.5000    0.0000 N   0  0  0  0  0  0  0  0  0  0  0  0
    3.7320   -2.5000    0.0000 C   0  0  0  0  0  0  0  0  0  0  0  0
    4.5981   -2.0000    0.0000 C   0  0  3  0  0  0  0  0  0  0  0  0
    2.8660   -4.0000    0.0000 C   0  0  0  0  0  0  0  0  0  0  0  0
    4.5981   -1.0000    0.0000 C   0  0  0  0  0  0  0  0  0  0  0  0
    2.8660   -5.0000    0.0000 C   0  0  0  0  0  0  0  0  0  0  0  0
    2.0000   -3.5000    0.0000 C   0  0  0  0  0  0  0  0  0  0  0  0
    5.4641    0.5000    0.0000 C   0  0  0  0  0  0  0  0  0  0  0  0
    6.3301    1.0000    0.0000 C   0  0  0  0  0  0  0  0  0  0  0  0
    4.5981    1.0000    0.0000 C   0  0  0  0  0  0  0  0  0  0  0  0
    5.4641    2.5000    0.0000 C   0  0  0  0  0  0  0  0  0  0  0  0
    6.3301    2.0000    0.0000 C   0  0  0  0  0  0  0  0  0  0  0  0
    4.5981    2.0000    0.0000 C   0  0  0  0  0  0  0  0  0  0  0  0
    6.3301    4.0000    0.0000 C   0  0  0  0  0  0  0  0  0  0  0  0
    6.3301    5.0000    0.0000 C   0  0  0  0  0  0  0  0  0  0  0  0
    3.5200   -1.9174    0.0000 H   0  0  0  0  0  0  0  0  0  0  0  0
    3.1215   -2.6077    0.0000 H   0  0  0  0  0  0  0  0  0  0  0  0
    4.5981   -2.8500    0.0000 H   0  0  0  0  0  0  0  0  0  0  0  0
    2.8660   -3.3800    0.0000 H   0  0  0  0  0  0  0  0  0  0  0  0
    4.2690   -3.8100    0.0000 H   0  0  0  0  0  0  0  0  0  0  0  0
    4.3860   -0.4174    0.0000 H   0  0  0  0  0  0  0  0  0  0  0  0
    3.9875   -1.1077    0.0000 H   0  0  0  0  0  0  0  0  0  0  0  0
    2.2460   -5.0000    0.0000 H   0  0  0  0  0  0  0  0  0  0  0  0
    2.8660   -5.6200    0.0000 H   0  0  0  0  0  0  0  0  0  0  0  0
    3.4860   -5.0000    0.0000 H   0  0  0  0  0  0  0  0  0  0  0  0
    2.3100   -2.9631    0.0000 H   0  0  0  0  0  0  0  0  0  0  0  0
    1.4631   -3.1900    0.0000 H   0  0  0  0  0  0  0  0  0  0  0  0
    1.6900   -4.0369    0.0000 H   0  0  0  0  0  0  0  0  0  0  0  0
    5.4641   -3.1200    0.0000 H   0  0  0  0  0  0  0  0  0  0  0  0
    6.8671    0.6900    0.0000 H   0  0  0  0  0  0  0  0  0  0  0  0
    4.0611    0.6900    0.0000 H   0  0  0  0  0  0  0  0  0  0  0  0
    6.8671    2.3100    0.0000 H   0  0  0  0  0  0  0  0  0  0  0  0
    4.0611    2.3100    0.0000 H   0  0  0  0  0  0  0  0  0  0  0  0
    4.9272    3.8100    0.0000 H   0  0  0  0  0  0  0  0  0  0  0  0
    6.9501    5.0000    0.0000 H   0  0  0  0  0  0  0  0  0  0  0  0
    6.3301    5.6200    0.0000 H   0  0  0  0  0  0  0  0  0  0  0  0
    5.7101    5.0000    0.0000 H   0  0  0  0  0  0  0  0  0  0  0  0
  1  9  1  0  0  0  0 
  1 12  1  0  0  0  0 
  2  7  1  0  0  0  0 
  2 33  1  0  0  0  0 
  3 18  2  0  0  0  0 
  4  6  1  0  0  0  0 
  4  8  1  0  0  0  0 
  4 24  1  0  0  0  0 
  5 15  1  0  0  0  0 
  5 18  1  0  0  0  0 
  5 38  1  0  0  0  0 
  6  7  1  0  0  0  0 
  6 20  1  0  0  0  0 
  6 21  1  0  0  0  0 
  7  9  1  0  0  0  0 
  7 22  1  0  0  0  0 
  8 10  1  0  0  0  0 
  8 11  1  0  0  0  0 
  8 23  1  0  0  0  0 
  9 25  1  0  0  0  0 
  9 26  1  0  0  0  0 
 10 27  1  0  0  0  0 
 10 28  1  0  0  0  0 
 10 29  1  0  0  0  0 
 11 30  1  0  0  0  0 
 11 31  1  0  0  0  0 
 11 32  1  0  0  0  0 
 12 13  2  0  0  0  0 
 12 14  1  0  0  0  0 
 13 16  1  0  0  0  0 
 13 34  1  0  0  0  0 
 14 17  2  0  0  0  0 
 14 35  1  0  0  0  0 
 15 16  2  0  0  0  0 
 15 17  1  0  0  0  0 
 16 36  1  0  0  0  0 
 17 37  1  0  0  0  0 
 18 19  1  0  0  0  0 
 19 39  1  0  0  0  0 
 19 40  1  0  0  0  0 
 19 41  1  0  0  0  0 
M  END
> <cdk:Title>
4883

> <cdk:Remark>
null

> <PUBCHEM_COMPOUND_CID>
4883

> <PUBCHEM_COMPOUND_CANONICALIZED>
1

> <PUBCHEM_CACTVS_COMPLEXITY>
263

> <PUBCHEM_CACTVS_HBOND_ACCEPTOR>
4

> <PUBCHEM_CACTVS_HBOND_DONOR>
3

> <PUBCHEM_CACTVS_ROTATABLE_BOND>
7

> <PUBCHEM_CACTVS_SUBSKEYS>
AAADceBzMAAAAAAAAAAAAAAAAAAAAAAAAAAwAAAAAAAAAAABAAAAHgAQCAAACDzhkAYyxoLABgCIACVSUACCCAAhIgAIiIAObIgPNiLEsZuGOCjm1BHb6AewQAAAAEAAAAAAAAAAgAAAAAAAAAAAAAAAAA==

> <PUBCHEM_IUPAC_OPENEYE_NAME>
N-[4-[2-hydroxy-3-(isopropylamino)propoxy]phenyl]acetamide

> <PUBCHEM_IUPAC_CAS_NAME>
N-[4-[2-hydroxy-3-(propan-2-ylamino)propoxy]phenyl]acetamide

> <PUBCHEM_IUPAC_NAME>
N-[4-[2-hydroxy-3-(propan-2-ylamino)propoxy]phenyl]acetamide

> <PUBCHEM_IUPAC_SYSTEMATIC_NAME>
N-[4-[2-oxidanyl-3-(propan-2-ylamino)propoxy]phenyl]ethanamide

> <PUBCHEM_IUPAC_TRADITIONAL_NAME>
N-[4-[2-hydroxy-3-(isopropylamino)propoxy]phenyl]acetamide

> <PUBCHEM_IUPAC_INCHI>
InChI=1S/C14H22N2O3/c1-10(2)15-8-13(18)9-19-14-6-4-12(5-7-14)16-11(3)17/h4-7,10,13,15,18H,8-9H2,1-3H3,(H,16,17)

> <PUBCHEM_IUPAC_INCHIKEY>
DURULFYMVIFBIR-UHFFFAOYSA-N

> <PUBCHEM_XLOGP3>
0.8

> <PUBCHEM_EXACT_MASS>
266.163043

> <PUBCHEM_MOLECULAR_FORMULA>
C14H22N2O3

> <PUBCHEM_MOLECULAR_WEIGHT>
266.33608

> <PUBCHEM_OPENEYE_CAN_SMILES>
CC(C)NCC(COC1=CC=C(C=C1)NC(=O)C)O

> <PUBCHEM_OPENEYE_ISO_SMILES>
CC(C)NCC(COC1=CC=C(C=C1)NC(=O)C)O

> <PUBCHEM_CACTVS_TPSA>
70.6

> <PUBCHEM_MONOISOTOPIC_WEIGHT>
266.163043

> <PUBCHEM_TOTAL_CHARGE>
0

> <PUBCHEM_HEAVY_ATOM_COUNT>
19

> <PUBCHEM_ATOM_DEF_STEREO_COUNT>
0

> <PUBCHEM_ATOM_UDEF_STEREO_COUNT>
1

> <PUBCHEM_BOND_DEF_STEREO_COUNT>
0

> <PUBCHEM_BOND_UDEF_STEREO_COUNT>
0

> <PUBCHEM_ISOTOPIC_ATOM_COUNT>
0

> <PUBCHEM_COMPONENT_COUNT>
1

> <PUBCHEM_CACTVS_TAUTO_COUNT>
3

> <PUBCHEM_COORDINATE_TYPE>
1
5
255

> <PUBCHEM_BONDANNOTATIONS>
12  13  8
12  14  8
13  16  8
14  17  8
15  16  8
15  17  8
7  22  3

> <DRUG_ID>
w33

> <DRUG_NAME>
Practolol

$$$$
60464
  CDK     0927151942
null
 50 53  0  0  0  0  0  0  0  0999 V2000
    6.3301   -1.4050    0.0000 F   0  0  0  0  0  0  0  0  0  0  0  0
    4.5981    1.5950    0.0000 F   0  0  0  0  0  0  0  0  0  0  0  0
    8.0785    2.6296    0.0000 O   0  0  0  0  0  0  0  0  0  0  0  0
   10.7282    1.1225    0.0000 O   0  0  0  0  0  0  0  0  0  0  0  0
    9.8564    2.6191    0.0000 O   0  0  0  0  0  0  0  0  0  0  0  0
    8.0901   -0.4397    0.0000 N   0  0  0  0  0  0  0  0  0  0  0  0
    4.5981   -0.4050    0.0000 N   0  0  0  0  0  0  0  0  0  0  0  0
    2.8660   -1.4050    0.0000 N   0  0  0  0  0  0  0  0  0  0  0  0
    6.3301    2.5950    0.0000 N   0  0  0  0  0  0  0  0  0  0  0  0
    8.0785   -1.4396    0.0000 C   0  0  0  0  0  0  0  0  0  0  0  0
    7.5686   -2.2998    0.0000 C   0  0  0  0  0  0  0  0  0  0  0  0
    8.5685   -2.3113    0.0000 C   0  0  0  0  0  0  0  0  0  0  0  0
    7.1962    0.0950    0.0000 C   0  0  0  0  0  0  0  0  0  0  0  0
    3.7320   -1.9050    0.0000 C   0  0  1  0  0  0  0  0  0  0  0  0
    2.8660   -0.4050    0.0000 C   0  0  2  0  0  0  0  0  0  0  0  0
    3.7320    0.0950    0.0000 C   0  0  0  0  0  0  0  0  0  0  0  0
    4.5981   -1.4050    0.0000 C   0  0  0  0  0  0  0  0  0  0  0  0
    5.4641    0.0950    0.0000 C   0  0  0  0  0  0  0  0  0  0  0  0
    8.9962    0.0742    0.0000 C   0  0  0  0  0  0  0  0  0  0  0  0
    7.1962    1.0950    0.0000 C   0  0  0  0  0  0  0  0  0  0  0  0
    6.3301   -0.4050    0.0000 C   0  0  0  0  0  0  0  0  0  0  0  0
    6.3301    1.5950    0.0000 C   0  0  0  0  0  0  0  0  0  0  0  0
    8.9962    1.1158    0.0000 C   0  0  0  0  0  0  0  0  0  0  0  0
    5.4641    1.0950    0.0000 C   0  0  0  0  0  0  0  0  0  0  0  0
    8.0901    1.6297    0.0000 C   0  0  0  0  0  0  0  0  0  0  0  0
    3.7320   -2.9050    0.0000 C   0  0  0  0  0  0  0  0  0  0  0  0
    2.0000    0.0950    0.0000 C   0  0  0  0  0  0  0  0  0  0  0  0
    9.8602    1.6192    0.0000 C   0  0  0  0  0  0  0  0  0  0  0  0
    8.6792   -1.2861    0.0000 H   0  0  0  0  0  0  0  0  0  0  0  0
    6.9884   -2.0810    0.0000 H   0  0  0  0  0  0  0  0  0  0  0  0
    7.4538   -2.9091    0.0000 H   0  0  0  0  0  0  0  0  0  0  0  0
    8.6691   -2.9231    0.0000 H   0  0  0  0  0  0  0  0  0  0  0  0
    9.1535   -2.1060    0.0000 H   0  0  0  0  0  0  0  0  0  0  0  0
    3.1951   -2.2150    0.0000 H   0  0  0  0  0  0  0  0  0  0  0  0
    2.3291   -0.7150    0.0000 H   0  0  0  0  0  0  0  0  0  0  0  0
    4.8101   -1.9876    0.0000 H   0  0  0  0  0  0  0  0  0  0  0  0
    5.2087   -1.2973    0.0000 H   0  0  0  0  0  0  0  0  0  0  0  0
    4.1306    0.5699    0.0000 H   0  0  0  0  0  0  0  0  0  0  0  0
    3.3335    0.5699    0.0000 H   0  0  0  0  0  0  0  0  0  0  0  0
    9.5319   -0.2379    0.0000 H   0  0  0  0  0  0  0  0  0  0  0  0
    2.3291   -1.7150    0.0000 H   0  0  0  0  0  0  0  0  0  0  0  0
    3.1120   -2.9050    0.0000 H   0  0  0  0  0  0  0  0  0  0  0  0
    3.7320   -3.5250    0.0000 H   0  0  0  0  0  0  0  0  0  0  0  0
    2.3100    0.6319    0.0000 H   0  0  0  0  0  0  0  0  0  0  0  0
    1.4631    0.4050    0.0000 H   0  0  0  0  0  0  0  0  0  0  0  0
    1.6900   -0.4419    0.0000 H   0  0  0  0  0  0  0  0  0  0  0  0
    4.3520   -2.9050    0.0000 H   0  0  0  0  0  0  0  0  0  0  0  0
    5.7932    2.9050    0.0000 H   0  0  0  0  0  0  0  0  0  0  0  0
    6.8671    2.9050    0.0000 H   0  0  0  0  0  0  0  0  0  0  0  0
   11.2639    1.4346    0.0000 H   0  0  0  0  0  0  0  0  0  0  0  0
  1 21  1  0  0  0  0 
  2 24  1  0  0  0  0 
  3 25  2  0  0  0  0 
  4 28  1  0  0  0  0 
  4 50  1  0  0  0  0 
  5 28  2  0  0  0  0 
  6 10  1  0  0  0  0 
  6 13  1  0  0  0  0 
  6 19  1  0  0  0  0 
  7 16  1  0  0  0  0 
  7 17  1  0  0  0  0 
  7 18  1  0  0  0  0 
  8 14  1  0  0  0  0 
  8 15  1  0  0  0  0 
  8 41  1  0  0  0  0 
  9 22  1  0  0  0  0 
  9 48  1  0  0  0  0 
  9 49  1  0  0  0  0 
 10 11  1  0  0  0  0 
 10 12  1  0  0  0  0 
 10 29  1  0  0  0  0 
 11 12  1  0  0  0  0 
 11 30  1  0  0  0  0 
 11 31  1  0  0  0  0 
 12 32  1  0  0  0  0 
 12 33  1  0  0  0  0 
 13 20  1  0  0  0  0 
 13 21  2  0  0  0  0 
 14 17  1  0  0  0  0 
 14 26  1  1  0  0  0 
 14 34  1  0  0  0  0 
 15 16  1  0  0  0  0 
 15 27  1  1  0  0  0 
 15 35  1  0  0  0  0 
 16 38  1  0  0  0  0 
 16 39  1  0  0  0  0 
 17 36  1  0  0  0  0 
 17 37  1  0  0  0  0 
 18 21  1  0  0  0  0 
 18 24  2  0  0  0  0 
 19 23  2  0  0  0  0 
 19 40  1  0  0  0  0 
 20 22  2  0  0  0  0 
 20 25  1  0  0  0  0 
 22 24  1  0  0  0  0 
 23 25  1  0  0  0  0 
 23 28  1  0  0  0  0 
 26 42  1  0  0  0  0 
 26 43  1  0  0  0  0 
 26 47  1  0  0  0  0 
 27 44  1  0  0  0  0 
 27 45  1  0  0  0  0 
 27 46  1  0  0  0  0 
M  END
> <cdk:Title>
60464

> <cdk:Remark>
null

> <PUBCHEM_COMPOUND_CID>
60464

> <PUBCHEM_COMPOUND_CANONICALIZED>
1

> <PUBCHEM_CACTVS_COMPLEXITY>
691

> <PUBCHEM_CACTVS_HBOND_ACCEPTOR>
9

> <PUBCHEM_CACTVS_HBOND_DONOR>
3

> <PUBCHEM_CACTVS_ROTATABLE_BOND>
3

> <PUBCHEM_CACTVS_SUBSKEYS>
AAADceB7sYAAAAAAAAAAAAAAGAAAAAAAAAA8QIAAAAAAAACBAAAAHwAQCAAADCzBmAwCyIPAAgCIAoTWSACCAAAlAAAAiIEIRMgIZD7I1NGUYYhksADI2ceY2aOeCAAAAAQCAAAQAAAACAQAAAAAAAAAAA==

> <PUBCHEM_IUPAC_OPENEYE_NAME>
5-amino-1-cyclopropyl-7-[(3S,5R)-3,5-dimethylpiperazin-1-yl]-6,8-difluoro-4-oxo-quinoline-3-carboxylic acid

> <PUBCHEM_IUPAC_CAS_NAME>
5-amino-1-cyclopropyl-7-[(3S,5R)-3,5-dimethyl-1-piperazinyl]-6,8-difluoro-4-oxo-3-quinolinecarboxylic acid

> <PUBCHEM_IUPAC_NAME>
5-amino-1-cyclopropyl-7-[(3S,5R)-3,5-dimethylpiperazin-1-yl]-6,8-difluoro-4-oxoquinoline-3-carboxylic acid

> <PUBCHEM_IUPAC_SYSTEMATIC_NAME>
5-azanyl-1-cyclopropyl-7-[(3S,5R)-3,5-dimethylpiperazin-1-yl]-6,8-bis(fluoranyl)-4-oxidanylidene-quinoline-3-carboxylic acid

> <PUBCHEM_IUPAC_TRADITIONAL_NAME>
5-amino-1-cyclopropyl-7-[(3S,5R)-3,5-dimethylpiperazino]-6,8-difluoro-4-keto-quinoline-3-carboxylic acid

> <PUBCHEM_IUPAC_INCHI>
InChI=1S/C19H22F2N4O3/c1-8-5-24(6-9(2)23-8)17-13(20)15(22)12-16(14(17)21)25(10-3-4-10)7-11(18(12)26)19(27)28/h7-10,23H,3-6,22H2,1-2H3,(H,27,28)/t8-,9+

> <PUBCHEM_IUPAC_INCHIKEY>
DZZWHBIBMUVIIW-DTORHVGOSA-N

> <PUBCHEM_XLOGP3_AA>
0.1

> <PUBCHEM_EXACT_MASS>
392.165997

> <PUBCHEM_MOLECULAR_FORMULA>
C19H22F2N4O3

> <PUBCHEM_MOLECULAR_WEIGHT>
392.399786

> <PUBCHEM_OPENEYE_CAN_SMILES>
CC1CN(CC(N1)C)C2=C(C3=C(C(=C2F)N)C(=O)C(=CN3C4CC4)C(=O)O)F

> <PUBCHEM_OPENEYE_ISO_SMILES>
C[C@@H]1CN(C[C@@H](N1)C)C2=C(C3=C(C(=C2F)N)C(=O)C(=CN3C4CC4)C(=O)O)F

> <PUBCHEM_CACTVS_TPSA>
98.9

> <PUBCHEM_MONOISOTOPIC_WEIGHT>
392.165997

> <PUBCHEM_TOTAL_CHARGE>
0

> <PUBCHEM_HEAVY_ATOM_COUNT>
28

> <PUBCHEM_ATOM_DEF_STEREO_COUNT>
2

> <PUBCHEM_ATOM_UDEF_STEREO_COUNT>
0

> <PUBCHEM_BOND_DEF_STEREO_COUNT>
0

> <PUBCHEM_BOND_UDEF_STEREO_COUNT>
0

> <PUBCHEM_ISOTOPIC_ATOM_COUNT>
0

> <PUBCHEM_COMPONENT_COUNT>
1

> <PUBCHEM_CACTVS_TAUTO_COUNT>
3

> <PUBCHEM_COORDINATE_TYPE>
1
5
255

> <PUBCHEM_BONDANNOTATIONS>
13  20  8
13  21  8
14  26  5
15  27  5
18  21  8
18  24  8
19  23  8
20  22  8
20  25  8
22  24  8
23  25  8
6  13  8
6  19  8

> <DRUG_ID>
w34

> <DRUG_NAME>
Sparfloxacin

$$$$
656516
  CDK     0927151942
null
 59 61  0  0  0  0  0  0  0  0999 V2000
    8.5991   -0.5000    0.0000 O   0  0  0  0  0  0  0  0  0  0  0  0
    5.1350    0.5000    0.0000 O   0  0  0  0  0  0  0  0  0  0  0  0
    6.8671    0.5000    0.0000 O   0  0  0  0  0  0  0  0  0  0  0  0
    6.8671   -2.5000    0.0000 O   0  0  0  0  0  0  0  0  0  0  0  0
   10.3312   -0.5000    0.0000 O   0  0  0  0  0  0  0  0  0  0  0  0
    8.5991   -3.5000    0.0000 O   0  0  0  0  0  0  0  0  0  0  0  0
   10.3312   -2.5000    0.0000 O   0  0  0  0  0  0  0  0  0  0  0  0
    6.8671    2.5000    0.0000 O   0  0  0  0  0  0  0  0  0  0  0  0
    5.1350    3.5000    0.0000 O   0  0  0  0  0  0  0  0  0  0  0  0
    3.4030    2.5000    0.0000 O   0  0  0  0  0  0  0  0  0  0  0  0
    2.5369    1.0000    0.0000 O   0  0  0  0  0  0  0  0  0  0  0  0
    8.5991    1.5000    0.0000 N   0  0  0  0  0  0  0  0  0  0  0  0
    7.7331   -1.0000    0.0000 C   0  0  1  0  0  0  0  0  0  0  0  0
    7.7331   -2.0000    0.0000 C   0  0  2  0  0  0  0  0  0  0  0  0
    8.5991   -2.5000    0.0000 C   0  0  1  0  0  0  0  0  0  0  0  0
    9.4651   -2.0000    0.0000 C   0  0  2  0  0  0  0  0  0  0  0  0
    6.0010    2.0000    0.0000 C   0  0  2  0  0  0  0  0  0  0  0  0
    5.1350    2.5000    0.0000 C   0  0  2  0  0  0  0  0  0  0  0  0
    6.0010    1.0000    0.0000 C   0  0  1  0  0  0  0  0  0  0  0  0
    4.2690    2.0000    0.0000 C   0  0  1  0  0  0  0  0  0  0  0  0
    4.2690    1.0000    0.0000 C   0  0  1  0  0  0  0  0  0  0  0  0
    9.4651   -1.0000    0.0000 C   0  0  1  0  0  0  0  0  0  0  0  0
    6.8671   -0.5000    0.0000 C   0  0  0  0  0  0  0  0  0  0  0  0
    3.4030    0.5000    0.0000 C   0  0  0  0  0  0  0  0  0  0  0  0
   10.3312    0.5000    0.0000 C   0  0  2  0  0  0  0  0  0  0  0  0
   11.1972    1.0000    0.0000 C   0  0  0  0  0  0  0  0  0  0  0  0
    9.4651    1.0000    0.0000 C   0  0  0  0  0  0  0  0  0  0  0  0
   12.0632    0.5000    0.0000 C   0  0  0  0  0  0  0  0  0  0  0  0
   11.1972    2.0000    0.0000 C   0  0  0  0  0  0  0  0  0  0  0  0
   12.9292    1.0000    0.0000 C   0  0  0  0  0  0  0  0  0  0  0  0
   12.0632    2.5000    0.0000 C   0  0  0  0  0  0  0  0  0  0  0  0
   12.9292    2.0000    0.0000 C   0  0  0  0  0  0  0  0  0  0  0  0
    7.7331   -0.3800    0.0000 H   0  0  0  0  0  0  0  0  0  0  0  0
    7.7331   -2.6200    0.0000 H   0  0  0  0  0  0  0  0  0  0  0  0
    8.0622   -2.8100    0.0000 H   0  0  0  0  0  0  0  0  0  0  0  0
   10.0021   -1.6900    0.0000 H   0  0  0  0  0  0  0  0  0  0  0  0
    6.5380    1.6900    0.0000 H   0  0  0  0  0  0  0  0  0  0  0  0
    5.6720    2.8100    0.0000 H   0  0  0  0  0  0  0  0  0  0  0  0
    6.5380    1.3100    0.0000 H   0  0  0  0  0  0  0  0  0  0  0  0
    4.2690    2.6200    0.0000 H   0  0  0  0  0  0  0  0  0  0  0  0
    4.2690    0.3800    0.0000 H   0  0  0  0  0  0  0  0  0  0  0  0
   10.0021   -1.3100    0.0000 H   0  0  0  0  0  0  0  0  0  0  0  0
    6.2565   -0.3923    0.0000 H   0  0  0  0  0  0  0  0  0  0  0  0
    6.6550   -1.0826    0.0000 H   0  0  0  0  0  0  0  0  0  0  0  0
    3.0044    0.0251    0.0000 H   0  0  0  0  0  0  0  0  0  0  0  0
    3.8015    0.0251    0.0000 H   0  0  0  0  0  0  0  0  0  0  0  0
    6.3301   -2.1900    0.0000 H   0  0  0  0  0  0  0  0  0  0  0  0
    8.0622   -3.8100    0.0000 H   0  0  0  0  0  0  0  0  0  0  0  0
   10.8681   -2.1900    0.0000 H   0  0  0  0  0  0  0  0  0  0  0  0
    6.8671    3.1200    0.0000 H   0  0  0  0  0  0  0  0  0  0  0  0
    4.5981    3.8100    0.0000 H   0  0  0  0  0  0  0  0  0  0  0  0
    3.4030    3.1200    0.0000 H   0  0  0  0  0  0  0  0  0  0  0  0
   10.8681    0.1900    0.0000 H   0  0  0  0  0  0  0  0  0  0  0  0
    2.0000    0.6900    0.0000 H   0  0  0  0  0  0  0  0  0  0  0  0
   12.0632   -0.1200    0.0000 H   0  0  0  0  0  0  0  0  0  0  0  0
   10.6603    2.3100    0.0000 H   0  0  0  0  0  0  0  0  0  0  0  0
   13.4662    0.6900    0.0000 H   0  0  0  0  0  0  0  0  0  0  0  0
   12.0632    3.1200    0.0000 H   0  0  0  0  0  0  0  0  0  0  0  0
   13.4662    2.3100    0.0000 H   0  0  0  0  0  0  0  0  0  0  0  0
  1 13  1  0  0  0  0 
  1 22  1  0  0  0  0 
  2 19  1  0  0  0  0 
  2 21  1  0  0  0  0 
 19  3  1  6  0  0  0 
  3 23  1  0  0  0  0 
 14  4  1  6  0  0  0 
  4 47  1  0  0  0  0 
 22  5  1  1  0  0  0 
 25  5  1  1  0  0  0 
 15  6  1  1  0  0  0 
  6 48  1  0  0  0  0 
 16  7  1  6  0  0  0 
  7 49  1  0  0  0  0 
 17  8  1  1  0  0  0 
  8 50  1  0  0  0  0 
 18  9  1  6  0  0  0 
  9 51  1  0  0  0  0 
 20 10  1  1  0  0  0 
 10 52  1  0  0  0  0 
 11 24  1  0  0  0  0 
 11 54  1  0  0  0  0 
 12 27  3  0  0  0  0 
 13 14  1  0  0  0  0 
 13 23  1  1  0  0  0 
 13 33  1  0  0  0  0 
 14 15  1  0  0  0  0 
 14 34  1  0  0  0  0 
 15 16  1  0  0  0  0 
 15 35  1  0  0  0  0 
 16 22  1  0  0  0  0 
 16 36  1  0  0  0  0 
 17 18  1  0  0  0  0 
 17 19  1  0  0  0  0 
 17 37  1  0  0  0  0 
 18 20  1  0  0  0  0 
 18 38  1  0  0  0  0 
 19 39  1  0  0  0  0 
 20 21  1  0  0  0  0 
 20 40  1  0  0  0  0 
 21 24  1  6  0  0  0 
 21 41  1  0  0  0  0 
 22 42  1  0  0  0  0 
 23 43  1  0  0  0  0 
 23 44  1  0  0  0  0 
 24 45  1  0  0  0  0 
 24 46  1  0  0  0  0 
 25 26  1  0  0  0  0 
 25 27  1  0  0  0  0 
 25 53  1  0  0  0  0 
 26 28  2  0  0  0  0 
 26 29  1  0  0  0  0 
 28 30  1  0  0  0  0 
 28 55  1  0  0  0  0 
 29 31  2  0  0  0  0 
 29 56  1  0  0  0  0 
 30 32  2  0  0  0  0 
 30 57  1  0  0  0  0 
 31 32  1  0  0  0  0 
 31 58  1  0  0  0  0 
 32 59  1  0  0  0  0 
M  END
> <cdk:Title>
656516

> <cdk:Remark>
null

> <PUBCHEM_COMPOUND_CID>
656516

> <PUBCHEM_COMPOUND_CANONICALIZED>
1

> <PUBCHEM_CACTVS_COMPLEXITY>
638

> <PUBCHEM_CACTVS_HBOND_ACCEPTOR>
12

> <PUBCHEM_CACTVS_HBOND_DONOR>
7

> <PUBCHEM_CACTVS_ROTATABLE_BOND>
7

> <PUBCHEM_CACTVS_SUBSKEYS>
AAADceB6PAAAAAAAAAAAAAAAAAAAAAAAAAA0SIAAAAAAAAABAAAAHgAACAAADBSxmAMwCIAABgCQBiBCAAACAAAgAAAIiAAACIgZtiKAMRiicAAlwAEPqA/A4KwOAAAAAAAAAAAAAAAAAAAAAAAAAAAAAA==

> <PUBCHEM_IUPAC_OPENEYE_NAME>
(2R)-2-phenyl-2-[(2R,3R,4S,5S,6R)-3,4,5-trihydroxy-6-[[(2R,3R,4S,5S,6R)-3,4,5-trihydroxy-6-(hydroxymethyl)tetrahydropyran-2-yl]oxymethyl]tetrahydropyran-2-yl]oxy-acetonitrile

> <PUBCHEM_IUPAC_CAS_NAME>
(2R)-2-phenyl-2-[[(2R,3R,4S,5S,6R)-3,4,5-trihydroxy-6-[[(2R,3R,4S,5S,6R)-3,4,5-trihydroxy-6-(hydroxymethyl)-2-oxanyl]oxymethyl]-2-oxanyl]oxy]acetonitrile

> <PUBCHEM_IUPAC_NAME>
(2R)-2-phenyl-2-[(2R,3R,4S,5S,6R)-3,4,5-trihydroxy-6-[[(2R,3R,4S,5S,6R)-3,4,5-trihydroxy-6-(hydroxymethyl)oxan-2-yl]oxymethyl]oxan-2-yl]oxyacetonitrile

> <PUBCHEM_IUPAC_SYSTEMATIC_NAME>
(2R)-2-[(2R,3R,4S,5S,6R)-6-[[(2R,3R,4S,5S,6R)-6-(hydroxymethyl)-3,4,5-tris(oxidanyl)oxan-2-yl]oxymethyl]-3,4,5-tris(oxidanyl)oxan-2-yl]oxy-2-phenyl-ethanenitrile

> <PUBCHEM_IUPAC_TRADITIONAL_NAME>
(2R)-2-phenyl-2-[(2R,3R,4S,5S,6R)-3,4,5-trihydroxy-6-[[(2R,3R,4S,5S,6R)-3,4,5-trihydroxy-6-methylol-tetrahydropyran-2-yl]oxymethyl]tetrahydropyran-2-yl]oxy-acetonitrile

> <PUBCHEM_IUPAC_INCHI>
InChI=1S/C20H27NO11/c21-6-10(9-4-2-1-3-5-9)30-20-18(28)16(26)14(24)12(32-20)8-29-19-17(27)15(25)13(23)11(7-22)31-19/h1-5,10-20,22-28H,7-8H2/t10-,11+,12+,13+,14+,15-,16-,17+,18+,19+,20+/m0/s1

> <PUBCHEM_IUPAC_INCHIKEY>
XUCIJNAGGSZNQT-JHSLDZJXSA-N

> <PUBCHEM_XLOGP3_AA>
-2.7

> <PUBCHEM_EXACT_MASS>
457.158411

> <PUBCHEM_MOLECULAR_FORMULA>
C20H27NO11

> <PUBCHEM_MOLECULAR_WEIGHT>
457.42848

> <PUBCHEM_OPENEYE_CAN_SMILES>
C1=CC=C(C=C1)C(C#N)OC2C(C(C(C(O2)COC3C(C(C(C(O3)CO)O)O)O)O)O)O

> <PUBCHEM_OPENEYE_ISO_SMILES>
C1=CC=C(C=C1)[C@H](C#N)O[C@H]2[C@@H]([C@H]([C@@H]([C@H](O2)CO[C@H]3[C@@H]([C@H]([C@@H]([C@H](O3)CO)O)O)O)O)O)O

> <PUBCHEM_CACTVS_TPSA>
202

> <PUBCHEM_MONOISOTOPIC_WEIGHT>
457.158411

> <PUBCHEM_TOTAL_CHARGE>
0

> <PUBCHEM_HEAVY_ATOM_COUNT>
32

> <PUBCHEM_ATOM_DEF_STEREO_COUNT>
11

> <PUBCHEM_ATOM_UDEF_STEREO_COUNT>
0

> <PUBCHEM_BOND_DEF_STEREO_COUNT>
0

> <PUBCHEM_BOND_UDEF_STEREO_COUNT>
0

> <PUBCHEM_ISOTOPIC_ATOM_COUNT>
0

> <PUBCHEM_COMPONENT_COUNT>
1

> <PUBCHEM_CACTVS_TAUTO_COUNT>
1

> <PUBCHEM_COORDINATE_TYPE>
1
5
255

> <PUBCHEM_BONDANNOTATIONS>
20  10  5
13  23  5
21  24  6
26  28  8
26  29  8
28  30  8
29  31  8
19  3  6
30  32  8
31  32  8
14  4  6
22  5  5
25  5  5
15  6  5
16  7  6
17  8  5
18  9  6

> <DRUG_ID>
w35

> <DRUG_NAME>
Amygdalin

$$$$
3151
  CDK     0927151942
null
 54 58  0  0  0  0  0  0  0  0999 V2000
    2.0000   -4.6027    0.0000 Cl  0  0  0  0  0  0  0  0  0  0  0  0
    7.1279   -3.6027    0.0000 O   0  0  0  0  0  0  0  0  0  0  0  0
    9.6837    0.7058    0.0000 O   0  0  0  0  0  0  0  0  0  0  0  0
    6.4763    0.0536    0.0000 N   0  0  0  0  0  0  0  0  0  0  0  0
    5.5443   -2.7980    0.0000 N   0  0  0  0  0  0  0  0  0  0  0  0
    5.5443   -4.4074    0.0000 N   0  0  0  0  0  0  0  0  0  0  0  0
    9.0546    2.3671    0.0000 N   0  0  0  0  0  0  0  0  0  0  0  0
   10.6547    2.1933    0.0000 N   0  0  0  0  0  0  0  0  0  0  0  0
    5.8550   -1.8475    0.0000 C   0  0  0  0  0  0  0  0  0  0  0  0
    6.8335   -1.6412    0.0000 C   0  0  0  0  0  0  0  0  0  0  0  0
    5.1871   -1.1032    0.0000 C   0  0  0  0  0  0  0  0  0  0  0  0
    5.4978   -0.1526    0.0000 C   0  0  0  0  0  0  0  0  0  0  0  0
    7.1441   -0.6907    0.0000 C   0  0  0  0  0  0  0  0  0  0  0  0
    6.7870    1.0041    0.0000 C   0  0  0  0  0  0  0  0  0  0  0  0
    7.7654    1.2103    0.0000 C   0  0  0  0  0  0  0  0  0  0  0  0
    4.5981   -3.1027    0.0000 C   0  0  0  0  0  0  0  0  0  0  0  0
    6.1279   -3.6027    0.0000 C   0  0  0  0  0  0  0  0  0  0  0  0
    8.0761    2.1608    0.0000 C   0  0  0  0  0  0  0  0  0  0  0  0
    4.5981   -4.1027    0.0000 C   0  0  0  0  0  0  0  0  0  0  0  0
    3.7320   -2.6027    0.0000 C   0  0  0  0  0  0  0  0  0  0  0  0
    3.7320   -4.6027    0.0000 C   0  0  0  0  0  0  0  0  0  0  0  0
    9.4597    3.2748    0.0000 C   0  0  0  0  0  0  0  0  0  0  0  0
    2.8660   -3.1027    0.0000 C   0  0  0  0  0  0  0  0  0  0  0  0
    9.7916    1.7000    0.0000 C   0  0  0  0  0  0  0  0  0  0  0  0
   10.4539    3.1669    0.0000 C   0  0  0  0  0  0  0  0  0  0  0  0
    2.8660   -4.1027    0.0000 C   0  0  0  0  0  0  0  0  0  0  0  0
    9.0562    4.1898    0.0000 C   0  0  0  0  0  0  0  0  0  0  0  0
   11.0445    3.9738    0.0000 C   0  0  0  0  0  0  0  0  0  0  0  0
    9.6467    4.9968    0.0000 C   0  0  0  0  0  0  0  0  0  0  0  0
   10.6409    4.8888    0.0000 C   0  0  0  0  0  0  0  0  0  0  0  0
    6.2690   -2.3089    0.0000 H   0  0  0  0  0  0  0  0  0  0  0  0
    6.8540   -2.2609    0.0000 H   0  0  0  0  0  0  0  0  0  0  0  0
    7.4473   -1.7286    0.0000 H   0  0  0  0  0  0  0  0  0  0  0  0
    4.6402   -0.8111    0.0000 H   0  0  0  0  0  0  0  0  0  0  0  0
    4.8046   -1.5911    0.0000 H   0  0  0  0  0  0  0  0  0  0  0  0
    5.4772    0.4670    0.0000 H   0  0  0  0  0  0  0  0  0  0  0  0
    4.8840   -0.0653    0.0000 H   0  0  0  0  0  0  0  0  0  0  0  0
    7.6910   -0.9827    0.0000 H   0  0  0  0  0  0  0  0  0  0  0  0
    7.5267   -0.2028    0.0000 H   0  0  0  0  0  0  0  0  0  0  0  0
    6.7664    1.6238    0.0000 H   0  0  0  0  0  0  0  0  0  0  0  0
    6.1731    1.0914    0.0000 H   0  0  0  0  0  0  0  0  0  0  0  0
    7.7860    0.5907    0.0000 H   0  0  0  0  0  0  0  0  0  0  0  0
    8.3793    1.1230    0.0000 H   0  0  0  0  0  0  0  0  0  0  0  0
    8.0556    2.7805    0.0000 H   0  0  0  0  0  0  0  0  0  0  0  0
    7.4623    2.2482    0.0000 H   0  0  0  0  0  0  0  0  0  0  0  0
    5.7369   -4.9968    0.0000 H   0  0  0  0  0  0  0  0  0  0  0  0
    3.7320   -1.9827    0.0000 H   0  0  0  0  0  0  0  0  0  0  0  0
    3.7320   -5.2227    0.0000 H   0  0  0  0  0  0  0  0  0  0  0  0
    2.3291   -2.7927    0.0000 H   0  0  0  0  0  0  0  0  0  0  0  0
   11.2198    1.9382    0.0000 H   0  0  0  0  0  0  0  0  0  0  0  0
    8.4398    4.2567    0.0000 H   0  0  0  0  0  0  0  0  0  0  0  0
   11.6608    3.9069    0.0000 H   0  0  0  0  0  0  0  0  0  0  0  0
    9.3965    5.5640    0.0000 H   0  0  0  0  0  0  0  0  0  0  0  0
   11.0071    5.3891    0.0000 H   0  0  0  0  0  0  0  0  0  0  0  0
  1 26  1  0  0  0  0 
  2 17  2  0  0  0  0 
  3 24  2  0  0  0  0 
  4 12  1  0  0  0  0 
  4 13  1  0  0  0  0 
  4 14  1  0  0  0  0 
  5  9  1  0  0  0  0 
  5 16  1  0  0  0  0 
  5 17  1  0  0  0  0 
  6 17  1  0  0  0  0 
  6 19  1  0  0  0  0 
  6 46  1  0  0  0  0 
  7 18  1  0  0  0  0 
  7 22  1  0  0  0  0 
  7 24  1  0  0  0  0 
  8 24  1  0  0  0  0 
  8 25  1  0  0  0  0 
  8 50  1  0  0  0  0 
  9 10  1  0  0  0  0 
  9 11  1  0  0  0  0 
  9 31  1  0  0  0  0 
 10 13  1  0  0  0  0 
 10 32  1  0  0  0  0 
 10 33  1  0  0  0  0 
 11 12  1  0  0  0  0 
 11 34  1  0  0  0  0 
 11 35  1  0  0  0  0 
 12 36  1  0  0  0  0 
 12 37  1  0  0  0  0 
 13 38  1  0  0  0  0 
 13 39  1  0  0  0  0 
 14 15  1  0  0  0  0 
 14 40  1  0  0  0  0 
 14 41  1  0  0  0  0 
 15 18  1  0  0  0  0 
 15 42  1  0  0  0  0 
 15 43  1  0  0  0  0 
 16 19  2  0  0  0  0 
 16 20  1  0  0  0  0 
 18 44  1  0  0  0  0 
 18 45  1  0  0  0  0 
 19 21  1  0  0  0  0 
 20 23  2  0  0  0  0 
 20 47  1  0  0  0  0 
 21 26  2  0  0  0  0 
 21 48  1  0  0  0  0 
 22 25  1  0  0  0  0 
 22 27  2  0  0  0  0 
 23 26  1  0  0  0  0 
 23 49  1  0  0  0  0 
 25 28  2  0  0  0  0 
 27 29  1  0  0  0  0 
 27 51  1  0  0  0  0 
 28 30  1  0  0  0  0 
 28 52  1  0  0  0  0 
 29 30  2  0  0  0  0 
 29 53  1  0  0  0  0 
 30 54  1  0  0  0  0 
M  END
> <cdk:Title>
3151

> <cdk:Remark>
null

> <PUBCHEM_COMPOUND_CID>
3151

> <PUBCHEM_COMPOUND_CANONICALIZED>
1

> <PUBCHEM_CACTVS_COMPLEXITY>
655

> <PUBCHEM_CACTVS_HBOND_ACCEPTOR>
3

> <PUBCHEM_CACTVS_HBOND_DONOR>
2

> <PUBCHEM_CACTVS_ROTATABLE_BOND>
5

> <PUBCHEM_CACTVS_SUBSKEYS>
AAADceB7sAAEAAAAAAAAAAAAAAAAAWLAAAA8YIAAAAAAAFgBQAAAHgIQAAAACCrBECQxwIPAAACIACRCUACCAAAhBwAIiAAIdoiIYCLB05GUIAholgLIyCcQAAAAAABAAAIAACAAAIAABAAAQAAAAAAAAA==

> <PUBCHEM_IUPAC_OPENEYE_NAME>
6-chloro-3-[1-[3-(2-oxo-3H-benzimidazol-1-yl)propyl]-4-piperidyl]-1H-benzimidazol-2-one

> <PUBCHEM_IUPAC_CAS_NAME>
6-chloro-3-[1-[3-(2-oxo-3H-benzimidazol-1-yl)propyl]-4-piperidinyl]-1H-benzimidazol-2-one

> <PUBCHEM_IUPAC_NAME>
6-chloro-3-[1-[3-(2-oxo-3H-benzimidazol-1-yl)propyl]piperidin-4-yl]-1H-benzimidazol-2-one

> <PUBCHEM_IUPAC_SYSTEMATIC_NAME>
6-chloranyl-3-[1-[3-(2-oxidanylidene-3H-benzimidazol-1-yl)propyl]piperidin-4-yl]-1H-benzimidazol-2-one

> <PUBCHEM_IUPAC_TRADITIONAL_NAME>
6-chloro-3-[1-[3-(2-keto-3H-benzimidazol-1-yl)propyl]-4-piperidyl]-1H-benzimidazol-2-one

> <PUBCHEM_IUPAC_INCHI>
InChI=1S/C22H24ClN5O2/c23-15-6-7-20-18(14-15)25-22(30)28(20)16-8-12-26(13-9-16)10-3-11-27-19-5-2-1-4-17(19)24-21(27)29/h1-2,4-7,14,16H,3,8-13H2,(H,24,29)(H,25,30)

> <PUBCHEM_IUPAC_INCHIKEY>
FGXWKSZFVQUSTL-UHFFFAOYSA-N

> <PUBCHEM_XLOGP3>
3.9

> <PUBCHEM_EXACT_MASS>
425.161853

> <PUBCHEM_MOLECULAR_FORMULA>
C22H24ClN5O2

> <PUBCHEM_MOLECULAR_WEIGHT>
425.91126

> <PUBCHEM_OPENEYE_CAN_SMILES>
C1CN(CCC1N2C3=C(C=C(C=C3)Cl)NC2=O)CCCN4C5=CC=CC=C5NC4=O

> <PUBCHEM_OPENEYE_ISO_SMILES>
C1CN(CCC1N2C3=C(C=C(C=C3)Cl)NC2=O)CCCN4C5=CC=CC=C5NC4=O

> <PUBCHEM_CACTVS_TPSA>
67.9

> <PUBCHEM_MONOISOTOPIC_WEIGHT>
425.161853

> <PUBCHEM_TOTAL_CHARGE>
0

> <PUBCHEM_HEAVY_ATOM_COUNT>
30

> <PUBCHEM_ATOM_DEF_STEREO_COUNT>
0

> <PUBCHEM_ATOM_UDEF_STEREO_COUNT>
0

> <PUBCHEM_BOND_DEF_STEREO_COUNT>
0

> <PUBCHEM_BOND_UDEF_STEREO_COUNT>
0

> <PUBCHEM_ISOTOPIC_ATOM_COUNT>
0

> <PUBCHEM_COMPONENT_COUNT>
1

> <PUBCHEM_CACTVS_TAUTO_COUNT>
4

> <PUBCHEM_COORDINATE_TYPE>
1
5
255

> <PUBCHEM_BONDANNOTATIONS>
16  19  8
16  20  8
19  21  8
20  23  8
21  26  8
22  25  8
22  27  8
23  26  8
25  28  8
27  29  8
28  30  8
29  30  8
5  16  8
5  17  8
6  17  8
6  19  8
7  22  8
7  24  8
8  24  8
8  25  8

> <DRUG_ID>
w36

> <DRUG_NAME>
Domperidone

$$$$
61791
  CDK     0927151942
null
 69 73  0  0  0  0  0  0  0  0999 V2000
    6.2619   -2.8516    0.0000 O   0  0  0  0  0  0  0  0  0  0  0  0
    4.3211   -5.3511    0.0000 O   0  0  0  0  0  0  0  0  0  0  0  0
    5.6103    0.8047    0.0000 N   0  0  0  0  0  0  0  0  0  0  0  0
    4.6783   -2.0468    0.0000 N   0  0  0  0  0  0  0  0  0  0  0  0
    4.6783   -3.6563    0.0000 N   0  0  0  0  0  0  0  0  0  0  0  0
    5.3090    3.5333    0.0000 N   0  0  0  0  0  0  0  0  0  0  0  0
    4.9889   -1.0963    0.0000 C   0  0  0  0  0  0  0  0  0  0  0  0
    4.3211   -0.3520    0.0000 C   0  0  0  0  0  0  0  0  0  0  0  0
    5.9674   -0.8901    0.0000 C   0  0  0  0  0  0  0  0  0  0  0  0
    4.6318    0.5985    0.0000 C   0  0  0  0  0  0  0  0  0  0  0  0
    6.2781    0.0604    0.0000 C   0  0  0  0  0  0  0  0  0  0  0  0
    5.9209    1.7552    0.0000 C   0  0  0  0  0  0  0  0  0  0  0  0
    6.8994    1.9615    0.0000 C   0  0  0  0  0  0  0  0  0  0  0  0
    3.7320   -2.3516    0.0000 C   0  0  0  0  0  0  0  0  0  0  0  0
    7.2101    2.9120    0.0000 C   0  0  0  0  0  0  0  0  0  0  0  0
    5.2619   -2.8516    0.0000 C   0  0  0  0  0  0  0  0  0  0  0  0
    3.7320   -3.3516    0.0000 C   0  0  0  0  0  0  0  0  0  0  0  0
    7.5208    3.8625    0.0000 C   0  0  0  0  0  0  0  0  0  0  0  0
    8.1606    2.6013    0.0000 C   0  0  0  0  0  0  0  0  0  0  0  0
    2.8660   -1.8516    0.0000 C   0  0  0  0  0  0  0  0  0  0  0  0
    2.8660   -3.8516    0.0000 C   0  0  0  0  0  0  0  0  0  0  0  0
    4.9889   -4.6068    0.0000 C   0  0  0  0  0  0  0  0  0  0  0  0
    6.2596    3.2226    0.0000 C   0  0  0  0  0  0  0  0  0  0  0  0
    2.0000   -2.3516    0.0000 C   0  0  0  0  0  0  0  0  0  0  0  0
    2.0000   -3.3516    0.0000 C   0  0  0  0  0  0  0  0  0  0  0  0
    8.3668    1.6228    0.0000 C   0  0  0  0  0  0  0  0  0  0  0  0
    8.4993    4.0687    0.0000 C   0  0  0  0  0  0  0  0  0  0  0  0
    8.9049    3.2692    0.0000 C   0  0  0  0  0  0  0  0  0  0  0  0
    6.8529    4.6068    0.0000 C   0  0  0  0  0  0  0  0  0  0  0  0
    5.9674   -4.8130    0.0000 C   0  0  0  0  0  0  0  0  0  0  0  0
    8.8099    5.0193    0.0000 C   0  0  0  0  0  0  0  0  0  0  0  0
    9.3174    1.3122    0.0000 C   0  0  0  0  0  0  0  0  0  0  0  0
    7.1636    5.5573    0.0000 C   0  0  0  0  0  0  0  0  0  0  0  0
    9.8554    2.9585    0.0000 C   0  0  0  0  0  0  0  0  0  0  0  0
    6.2781   -5.7636    0.0000 C   0  0  0  0  0  0  0  0  0  0  0  0
    8.1421    5.7636    0.0000 C   0  0  0  0  0  0  0  0  0  0  0  0
   10.0616    1.9800    0.0000 C   0  0  0  0  0  0  0  0  0  0  0  0
    5.4030   -1.5578    0.0000 H   0  0  0  0  0  0  0  0  0  0  0  0
    5.9880   -1.5098    0.0000 H   0  0  0  0  0  0  0  0  0  0  0  0
    6.5812   -0.9774    0.0000 H   0  0  0  0  0  0  0  0  0  0  0  0
    3.7742   -0.0600    0.0000 H   0  0  0  0  0  0  0  0  0  0  0  0
    3.9385   -0.8399    0.0000 H   0  0  0  0  0  0  0  0  0  0  0  0
    6.8250   -0.2316    0.0000 H   0  0  0  0  0  0  0  0  0  0  0  0
    6.6607    0.5483    0.0000 H   0  0  0  0  0  0  0  0  0  0  0  0
    4.6112    1.2182    0.0000 H   0  0  0  0  0  0  0  0  0  0  0  0
    4.0179    0.6859    0.0000 H   0  0  0  0  0  0  0  0  0  0  0  0
    5.9004    2.3749    0.0000 H   0  0  0  0  0  0  0  0  0  0  0  0
    5.3071    1.8426    0.0000 H   0  0  0  0  0  0  0  0  0  0  0  0
    6.9200    1.3418    0.0000 H   0  0  0  0  0  0  0  0  0  0  0  0
    7.5132    1.8741    0.0000 H   0  0  0  0  0  0  0  0  0  0  0  0
    2.8660   -1.2316    0.0000 H   0  0  0  0  0  0  0  0  0  0  0  0
    2.8660   -4.4716    0.0000 H   0  0  0  0  0  0  0  0  0  0  0  0
    1.4631   -2.0416    0.0000 H   0  0  0  0  0  0  0  0  0  0  0  0
    1.4631   -3.6616    0.0000 H   0  0  0  0  0  0  0  0  0  0  0  0
    8.9133    3.6073    0.0000 H   0  0  0  0  0  0  0  0  0  0  0  0
    7.9054    1.2088    0.0000 H   0  0  0  0  0  0  0  0  0  0  0  0
    6.2462    4.4790    0.0000 H   0  0  0  0  0  0  0  0  0  0  0  0
    8.7770    3.8758    0.0000 H   0  0  0  0  0  0  0  0  0  0  0  0
    6.5812   -4.7257    0.0000 H   0  0  0  0  0  0  0  0  0  0  0  0
    5.9880   -4.1934    0.0000 H   0  0  0  0  0  0  0  0  0  0  0  0
    9.4452    0.7055    0.0000 H   0  0  0  0  0  0  0  0  0  0  0  0
    9.4166    5.1471    0.0000 H   0  0  0  0  0  0  0  0  0  0  0  0
    6.7495    6.0188    0.0000 H   0  0  0  0  0  0  0  0  0  0  0  0
   10.3169    3.3726    0.0000 H   0  0  0  0  0  0  0  0  0  0  0  0
    5.6888   -5.9562    0.0000 H   0  0  0  0  0  0  0  0  0  0  0  0
    6.4707   -6.3529    0.0000 H   0  0  0  0  0  0  0  0  0  0  0  0
    6.8674   -5.5709    0.0000 H   0  0  0  0  0  0  0  0  0  0  0  0
    8.3347    6.3529    0.0000 H   0  0  0  0  0  0  0  0  0  0  0  0
   10.6510    1.7874    0.0000 H   0  0  0  0  0  0  0  0  0  0  0  0
  1 16  2  0  0  0  0 
  2 22  2  0  0  0  0 
  3 10  1  0  0  0  0 
  3 11  1  0  0  0  0 
  3 12  1  0  0  0  0 
  4  7  1  0  0  0  0 
  4 14  1  0  0  0  0 
  4 16  1  0  0  0  0 
  5 16  1  0  0  0  0 
  5 17  1  0  0  0  0 
  5 22  1  0  0  0  0 
  6 23  3  0  0  0  0 
  7  8  1  0  0  0  0 
  7  9  1  0  0  0  0 
  7 38  1  0  0  0  0 
  8 10  1  0  0  0  0 
  8 41  1  0  0  0  0 
  8 42  1  0  0  0  0 
  9 11  1  0  0  0  0 
  9 39  1  0  0  0  0 
  9 40  1  0  0  0  0 
 10 45  1  0  0  0  0 
 10 46  1  0  0  0  0 
 11 43  1  0  0  0  0 
 11 44  1  0  0  0  0 
 12 13  1  0  0  0  0 
 12 47  1  0  0  0  0 
 12 48  1  0  0  0  0 
 13 15  1  0  0  0  0 
 13 49  1  0  0  0  0 
 13 50  1  0  0  0  0 
 14 17  1  0  0  0  0 
 14 20  2  0  0  0  0 
 15 18  1  0  0  0  0 
 15 19  1  0  0  0  0 
 15 23  1  0  0  0  0 
 17 21  2  0  0  0  0 
 18 27  2  0  0  0  0 
 18 29  1  0  0  0  0 
 19 26  2  0  0  0  0 
 19 28  1  0  0  0  0 
 20 24  1  0  0  0  0 
 20 51  1  0  0  0  0 
 21 25  1  0  0  0  0 
 21 52  1  0  0  0  0 
 22 30  1  0  0  0  0 
 24 25  2  0  0  0  0 
 24 53  1  0  0  0  0 
 25 54  1  0  0  0  0 
 26 32  1  0  0  0  0 
 26 56  1  0  0  0  0 
 27 31  1  0  0  0  0 
 27 55  1  0  0  0  0 
 28 34  2  0  0  0  0 
 28 58  1  0  0  0  0 
 29 33  2  0  0  0  0 
 29 57  1  0  0  0  0 
 30 35  1  0  0  0  0 
 30 59  1  0  0  0  0 
 30 60  1  0  0  0  0 
 31 36  2  0  0  0  0 
 31 62  1  0  0  0  0 
 32 37  2  0  0  0  0 
 32 61  1  0  0  0  0 
 33 36  1  0  0  0  0 
 33 63  1  0  0  0  0 
 34 37  1  0  0  0  0 
 34 64  1  0  0  0  0 
 35 65  1  0  0  0  0 
 35 66  1  0  0  0  0 
 35 67  1  0  0  0  0 
 36 68  1  0  0  0  0 
 37 69  1  0  0  0  0 
M  END
> <cdk:Title>
61791

> <cdk:Remark>
null

> <PUBCHEM_COMPOUND_CID>
61791

> <PUBCHEM_COMPOUND_CANONICALIZED>
1

> <PUBCHEM_CACTVS_COMPLEXITY>
827

> <PUBCHEM_CACTVS_HBOND_ACCEPTOR>
4

> <PUBCHEM_CACTVS_HBOND_DONOR>
0

> <PUBCHEM_CACTVS_ROTATABLE_BOND>
7

> <PUBCHEM_CACTVS_SUBSKEYS>
AAADcfB7sAAAAAAAAAAAAAAAAAAAAWAAAAA8YMEAAAAAAFgBUAAAHgAAAAAADijBmAQzwIMAAACYBiVSUACCAAAhAgAIiAEIdIiI4CLA0ZGUIAhohyLIyC8QgMAPgAAAAAAAACAAAAAAAAAAQAAAAAAAAA==

> <PUBCHEM_IUPAC_OPENEYE_NAME>
4-[4-(2-oxo-3-propanoyl-benzimidazol-1-yl)-1-piperidyl]-2,2-diphenyl-butanenitrile

> <PUBCHEM_IUPAC_CAS_NAME>
4-[4-[2-oxo-3-(1-oxopropyl)-1-benzimidazolyl]-1-piperidinyl]-2,2-diphenylbutanenitrile

> <PUBCHEM_IUPAC_NAME>
4-[4-(2-oxo-3-propanoylbenzimidazol-1-yl)piperidin-1-yl]-2,2-diphenylbutanenitrile

> <PUBCHEM_IUPAC_SYSTEMATIC_NAME>
4-[4-(2-oxidanylidene-3-propanoyl-benzimidazol-1-yl)piperidin-1-yl]-2,2-diphenyl-butanenitrile

> <PUBCHEM_IUPAC_TRADITIONAL_NAME>
4-[4-(2-keto-3-propionyl-benzimidazol-1-yl)piperidino]-2,2-diphenyl-butyronitrile

> <PUBCHEM_IUPAC_INCHI>
InChI=1S/C31H32N4O2/c1-2-29(36)35-28-16-10-9-15-27(28)34(30(35)37)26-17-20-33(21-18-26)22-19-31(23-32,24-11-5-3-6-12-24)25-13-7-4-8-14-25/h3-16,26H,2,17-22H2,1H3

> <PUBCHEM_IUPAC_INCHIKEY>
FLKWNFFCSSJANB-UHFFFAOYSA-N

> <PUBCHEM_XLOGP3_AA>
5

> <PUBCHEM_EXACT_MASS>
492.252526

> <PUBCHEM_MOLECULAR_FORMULA>
C31H32N4O2

> <PUBCHEM_MOLECULAR_WEIGHT>
492.61138

> <PUBCHEM_OPENEYE_CAN_SMILES>
CCC(=O)N1C2=CC=CC=C2N(C1=O)C3CCN(CC3)CCC(C#N)(C4=CC=CC=C4)C5=CC=CC=C5

> <PUBCHEM_OPENEYE_ISO_SMILES>
CCC(=O)N1C2=CC=CC=C2N(C1=O)C3CCN(CC3)CCC(C#N)(C4=CC=CC=C4)C5=CC=CC=C5

> <PUBCHEM_CACTVS_TPSA>
67.6

> <PUBCHEM_MONOISOTOPIC_WEIGHT>
492.252526

> <PUBCHEM_TOTAL_CHARGE>
0

> <PUBCHEM_HEAVY_ATOM_COUNT>
37

> <PUBCHEM_ATOM_DEF_STEREO_COUNT>
0

> <PUBCHEM_ATOM_UDEF_STEREO_COUNT>
0

> <PUBCHEM_BOND_DEF_STEREO_COUNT>
0

> <PUBCHEM_BOND_UDEF_STEREO_COUNT>
0

> <PUBCHEM_ISOTOPIC_ATOM_COUNT>
0

> <PUBCHEM_COMPONENT_COUNT>
1

> <PUBCHEM_CACTVS_TAUTO_COUNT>
1

> <PUBCHEM_COORDINATE_TYPE>
1
5
255

> <PUBCHEM_BONDANNOTATIONS>
14  17  8
14  20  8
17  21  8
18  27  8
18  29  8
19  26  8
19  28  8
20  24  8
21  25  8
24  25  8
26  32  8
27  31  8
28  34  8
29  33  8
31  36  8
32  37  8
33  36  8
34  37  8
4  14  8
4  16  8
5  16  8
5  17  8

> <DRUG_ID>
w37

> <DRUG_NAME>
Bezitramide

$$$$
3085263
  CDK     0927151942
null
266270  0  0  0  0  0  0  0  0999 V2000
   22.9925   11.3285    0.0000 S   0  0  0  0  0  0  0  0  0  0  0  0
   13.5273    4.5369    0.0000 O   0  0  0  0  0  0  0  0  0  0  0  0
   10.0632   16.5369    0.0000 O   0  0  0  0  0  0  0  0  0  0  0  0
   16.1254    4.0369    0.0000 O   0  0  0  0  0  0  0  0  0  0  0  0
   15.2594    5.5369    0.0000 O   0  0  0  0  0  0  0  0  0  0  0  0
   11.7953   16.5369    0.0000 O   0  0  0  0  0  0  0  0  0  0  0  0
   13.5273   17.5369    0.0000 O   0  0  0  0  0  0  0  0  0  0  0  0
    8.3312   14.5369    0.0000 O   0  0  0  0  0  0  0  0  0  0  0  0
   15.2594    7.5369    0.0000 O   0  0  0  0  0  0  0  0  0  0  0  0
   11.7953   14.5369    0.0000 O   0  0  0  0  0  0  0  0  0  0  0  0
    8.3312   17.5369    0.0000 O   0  0  0  0  0  0  0  0  0  0  0  0
   14.3933   15.0369    0.0000 O   0  0  0  0  0  0  0  0  0  0  0  0
   13.5273    2.5369    0.0000 O   0  0  0  0  0  0  0  0  0  0  0  0
   10.0632   13.5369    0.0000 O   0  0  0  0  0  0  0  0  0  0  0  0
   15.2594    1.5369    0.0000 O   0  0  0  0  0  0  0  0  0  0  0  0
    6.5991   17.5369    0.0000 O   0  0  0  0  0  0  0  0  0  0  0  0
   16.1254    9.0369    0.0000 O   0  0  0  0  0  0  0  0  0  0  0  0
   16.1254   18.0369    0.0000 O   0  0  0  0  0  0  0  0  0  0  0  0
   17.8574   10.0369    0.0000 O   0  0  0  0  0  0  0  0  0  0  0  0
   16.1254   16.0369    0.0000 O   0  0  0  0  0  0  0  0  0  0  0  0
   16.1254   12.0369    0.0000 O   0  0  0  0  0  0  0  0  0  0  0  0
   12.6613    7.0369    0.0000 O   0  0  0  0  0  0  0  0  0  0  0  0
   12.6613    9.0369    0.0000 O   0  0  0  0  0  0  0  0  0  0  0  0
    4.8671   19.5369    0.0000 O   0  0  0  0  0  0  0  0  0  0  0  0
   14.3933   10.0369    0.0000 O   0  0  0  0  0  0  0  0  0  0  0  0
   14.3933   19.0369    0.0000 O   0  0  0  0  0  0  0  0  0  0  0  0
    8.3312   19.5369    0.0000 O   0  0  0  0  0  0  0  0  0  0  0  0
    6.5991   20.5369    0.0000 O   0  0  0  0  0  0  0  0  0  0  0  0
   17.8574    3.0369    0.0000 O   0  0  0  0  0  0  0  0  0  0  0  0
   17.8574   13.0369    0.0000 O   0  0  0  0  0  0  0  0  0  0  0  0
   19.5895   12.0369    0.0000 O   0  0  0  0  0  0  0  0  0  0  0  0
   19.5895   10.0369    0.0000 O   0  0  0  0  0  0  0  0  0  0  0  0
   14.3933   13.0369    0.0000 O   0  0  0  0  0  0  0  0  0  0  0  0
    4.8671   16.5369    0.0000 O   0  0  0  0  0  0  0  0  0  0  0  0
   23.8585   11.8285    0.0000 O   0  0  0  0  0  0  0  0  0  0  0  0
   22.1264   10.8285    0.0000 O   0  0  0  0  0  0  0  0  0  0  0  0
   22.4925   12.1945    0.0000 O   0  0  0  0  0  0  0  0  0  0  0  0
   23.4925   10.4624    0.0000 O   0  0  0  0  0  0  0  0  0  0  0  0
   10.9292    4.0369    0.0000 N   0  0  0  0  0  0  0  0  0  0  0  0
    9.1972    2.0369    0.0000 N   0  0  0  0  0  0  0  0  0  0  0  0
    7.4651   12.0369    0.0000 N   0  0  0  0  0  0  0  0  0  0  0  0
   12.6613   12.0369    0.0000 N   0  0  0  0  0  0  0  0  0  0  0  0
   16.9914   20.5369    0.0000 N   0  0  0  0  0  0  0  0  0  0  0  0
    2.2690   19.0369    0.0000 N   0  0  0  0  0  0  0  0  0  0  0  0
   11.7953    4.5369    0.0000 C   0  0  0  0  0  0  0  0  0  0  0  0
   10.0632    3.5369    0.0000 C   0  0  0  0  0  0  0  0  0  0  0  0
   11.4292    3.1709    0.0000 C   0  0  0  0  0  0  0  0  0  0  0  0
   10.4292    4.9030    0.0000 C   0  0  0  0  0  0  0  0  0  0  0  0
   14.3933    4.0369    0.0000 C   0  0  2  0  0  0  0  0  0  0  0  0
   12.6613    4.0369    0.0000 C   0  0  0  0  0  0  0  0  0  0  0  0
   10.0632    2.5369    0.0000 C   0  0  0  0  0  0  0  0  0  0  0  0
   14.3933    3.0369    0.0000 C   0  0  2  0  0  0  0  0  0  0  0  0
    9.1972   15.0369    0.0000 C   0  0  1  0  0  0  0  0  0  0  0  0
   15.2594    4.5369    0.0000 C   0  0  2  0  0  0  0  0  0  0  0  0
   10.0632   14.5369    0.0000 C   0  0  1  0  0  0  0  0  0  0  0  0
    9.1972   16.0369    0.0000 C   0  0  1  0  0  0  0  0  0  0  0  0
   10.9292   15.0369    0.0000 C   0  0  2  0  0  0  0  0  0  0  0  0
   15.2594    2.5369    0.0000 C   0  0  1  0  0  0  0  0  0  0  0  0
   10.9292   16.0369    0.0000 C   0  0  2  0  0  0  0  0  0  0  0  0
   16.1254    3.0369    0.0000 C   0  0  1  0  0  0  0  0  0  0  0  0
   13.5273   16.5369    0.0000 C   0  0  1  0  0  0  0  0  0  0  0  0
   14.3933   16.0369    0.0000 C   0  0  2  0  0  0  0  0  0  0  0  0
   10.9292    2.3049    0.0000 C   0  0  0  0  0  0  0  0  0  0  0  0
    9.4292    4.9030    0.0000 C   0  0  0  0  0  0  0  0  0  0  0  0
   15.2594   16.5369    0.0000 C   0  0  1  0  0  0  0  0  0  0  0  0
   14.3933    7.0369    0.0000 C   0  0  1  0  0  0  0  0  0  0  0  0
   15.2594   17.5369    0.0000 C   0  0  2  0  0  0  0  0  0  0  0  0
    8.3312   16.5369    0.0000 C   0  0  0  0  0  0  0  0  0  0  0  0
   13.5273    7.5369    0.0000 C   0  0  2  0  0  0  0  0  0  0  0  0
   12.6613   16.0369    0.0000 C   0  0  0  0  0  0  0  0  0  0  0  0
   13.5273    8.5369    0.0000 C   0  0  1  0  0  0  0  0  0  0  0  0
   14.3933    6.0369    0.0000 C   0  0  0  0  0  0  0  0  0  0  0  0
   14.3933    9.0369    0.0000 C   0  0  2  0  0  0  0  0  0  0  0  0
   15.2594    8.5369    0.0000 C   0  0  2  0  0  0  0  0  0  0  0  0
   14.3933   18.0369    0.0000 C   0  0  2  0  0  0  0  0  0  0  0  0
    7.4651   18.0369    0.0000 C   0  0  1  0  0  0  0  0  0  0  0  0
    7.4651   19.0369    0.0000 C   0  0  1  0  0  0  0  0  0  0  0  0
   16.9914   11.5369    0.0000 C   0  0  2  0  0  0  0  0  0  0  0  0
   16.9914   10.5369    0.0000 C   0  0  1  0  0  0  0  0  0  0  0  0
    6.5991   19.5369    0.0000 C   0  0  2  0  0  0  0  0  0  0  0  0
    5.7331   19.0369    0.0000 C   0  0  1  0  0  0  0  0  0  0  0  0
   16.9914    2.5369    0.0000 C   0  0  0  0  0  0  0  0  0  0  0  0
    5.7331   18.0369    0.0000 C   0  0  1  0  0  0  0  0  0  0  0  0
    9.1972    1.0369    0.0000 C   0  0  0  0  0  0  0  0  0  0  0  0
    8.3312    2.5369    0.0000 C   0  0  0  0  0  0  0  0  0  0  0  0
   17.8574   12.0369    0.0000 C   0  0  1  0  0  0  0  0  0  0  0  0
   16.1254   10.0369    0.0000 C   0  0  0  0  0  0  0  0  0  0  0  0
   18.7235   11.5369    0.0000 C   0  0  2  0  0  0  0  0  0  0  0  0
   15.2594   14.5369    0.0000 C   0  0  0  0  0  0  0  0  0  0  0  0
   18.7235   10.5369    0.0000 C   0  0  2  0  0  0  0  0  0  0  0  0
    8.3312   13.5369    0.0000 C   0  0  0  0  0  0  0  0  0  0  0  0
   11.7953   13.5369    0.0000 C   0  0  0  0  0  0  0  0  0  0  0  0
   15.2594   13.5369    0.0000 C   0  0  3  0  0  0  0  0  0  0  0  0
   16.1254   13.0369    0.0000 C   0  0  0  0  0  0  0  0  0  0  0  0
    4.8671   17.5369    0.0000 C   0  0  0  0  0  0  0  0  0  0  0  0
    8.3312    0.5369    0.0000 C   0  0  0  0  0  0  0  0  0  0  0  0
    7.4651    2.0369    0.0000 C   0  0  0  0  0  0  0  0  0  0  0  0
    7.4651   13.0369    0.0000 C   0  0  0  0  0  0  0  0  0  0  0  0
   12.6613   13.0369    0.0000 C   0  0  0  0  0  0  0  0  0  0  0  0
   16.1254   19.0369    0.0000 C   0  0  0  0  0  0  0  0  0  0  0  0
    4.0010   19.0369    0.0000 C   0  0  0  0  0  0  0  0  0  0  0  0
   16.9914   19.5369    0.0000 C   0  0  0  0  0  0  0  0  0  0  0  0
    3.1350   19.5369    0.0000 C   0  0  0  0  0  0  0  0  0  0  0  0
    6.5991   11.5369    0.0000 C   0  0  0  0  0  0  0  0  0  0  0  0
    8.3312   11.5369    0.0000 C   0  0  0  0  0  0  0  0  0  0  0  0
   13.5273   11.5369    0.0000 C   0  0  0  0  0  0  0  0  0  0  0  0
   11.7953   11.5369    0.0000 C   0  0  0  0  0  0  0  0  0  0  0  0
   17.8574   21.0369    0.0000 C   0  0  0  0  0  0  0  0  0  0  0  0
   16.1254   21.0369    0.0000 C   0  0  0  0  0  0  0  0  0  0  0  0
    6.5991   10.5369    0.0000 C   0  0  0  0  0  0  0  0  0  0  0  0
    8.3312   10.5369    0.0000 C   0  0  0  0  0  0  0  0  0  0  0  0
   13.5273   10.5369    0.0000 C   0  0  0  0  0  0  0  0  0  0  0  0
   11.7953   10.5369    0.0000 C   0  0  0  0  0  0  0  0  0  0  0  0
    1.4030   19.5369    0.0000 C   0  0  0  0  0  0  0  0  0  0  0  0
    2.2690   18.0369    0.0000 C   0  0  0  0  0  0  0  0  0  0  0  0
   17.8574   22.0369    0.0000 C   0  0  0  0  0  0  0  0  0  0  0  0
   16.1254   22.0369    0.0000 C   0  0  0  0  0  0  0  0  0  0  0  0
    0.5369   19.0369    0.0000 C   0  0  0  0  0  0  0  0  0  0  0  0
    1.4030   17.5369    0.0000 C   0  0  0  0  0  0  0  0  0  0  0  0
   12.1938    5.0119    0.0000 H   0  0  0  0  0  0  0  0  0  0  0  0
   11.3967    5.0119    0.0000 H   0  0  0  0  0  0  0  0  0  0  0  0
    9.8512    4.1195    0.0000 H   0  0  0  0  0  0  0  0  0  0  0  0
    9.4526    3.4293    0.0000 H   0  0  0  0  0  0  0  0  0  0  0  0
   11.9042    2.7724    0.0000 H   0  0  0  0  0  0  0  0  0  0  0  0
   11.0118    5.1150    0.0000 H   0  0  0  0  0  0  0  0  0  0  0  0
   10.3216    5.5135    0.0000 H   0  0  0  0  0  0  0  0  0  0  0  0
   11.9042    3.5694    0.0000 H   0  0  0  0  0  0  0  0  0  0  0  0
   14.3933    4.6569    0.0000 H   0  0  0  0  0  0  0  0  0  0  0  0
   12.2628    3.5620    0.0000 H   0  0  0  0  0  0  0  0  0  0  0  0
   13.0598    3.5620    0.0000 H   0  0  0  0  0  0  0  0  0  0  0  0
   10.2753    1.9543    0.0000 H   0  0  0  0  0  0  0  0  0  0  0  0
   10.6738    2.6446    0.0000 H   0  0  0  0  0  0  0  0  0  0  0  0
   14.3933    2.4169    0.0000 H   0  0  0  0  0  0  0  0  0  0  0  0
    8.6602   15.3469    0.0000 H   0  0  0  0  0  0  0  0  0  0  0  0
   14.7224    4.8469    0.0000 H   0  0  0  0  0  0  0  0  0  0  0  0
   10.6002   14.2269    0.0000 H   0  0  0  0  0  0  0  0  0  0  0  0
    9.1972   16.6569    0.0000 H   0  0  0  0  0  0  0  0  0  0  0  0
   10.9292   14.4169    0.0000 H   0  0  0  0  0  0  0  0  0  0  0  0
   15.7963    2.2269    0.0000 H   0  0  0  0  0  0  0  0  0  0  0  0
   10.9292   16.6569    0.0000 H   0  0  0  0  0  0  0  0  0  0  0  0
   16.6623    3.3469    0.0000 H   0  0  0  0  0  0  0  0  0  0  0  0
   12.9904   16.8469    0.0000 H   0  0  0  0  0  0  0  0  0  0  0  0
   14.9303   15.7269    0.0000 H   0  0  0  0  0  0  0  0  0  0  0  0
    9.4292    5.5230    0.0000 H   0  0  0  0  0  0  0  0  0  0  0  0
    8.8092    4.9030    0.0000 H   0  0  0  0  0  0  0  0  0  0  0  0
   10.3923    2.6149    0.0000 H   0  0  0  0  0  0  0  0  0  0  0  0
   10.6192    1.7680    0.0000 H   0  0  0  0  0  0  0  0  0  0  0  0
    9.4292    4.2830    0.0000 H   0  0  0  0  0  0  0  0  0  0  0  0
   11.4662    1.9949    0.0000 H   0  0  0  0  0  0  0  0  0  0  0  0
   15.2594   15.9169    0.0000 H   0  0  0  0  0  0  0  0  0  0  0  0
   14.9303    6.7269    0.0000 H   0  0  0  0  0  0  0  0  0  0  0  0
   15.2594   18.1569    0.0000 H   0  0  0  0  0  0  0  0  0  0  0  0
    7.7206   16.6446    0.0000 H   0  0  0  0  0  0  0  0  0  0  0  0
    8.1191   15.9543    0.0000 H   0  0  0  0  0  0  0  0  0  0  0  0
   12.9904    7.8469    0.0000 H   0  0  0  0  0  0  0  0  0  0  0  0
   12.2628   15.5620    0.0000 H   0  0  0  0  0  0  0  0  0  0  0  0
   13.0598   15.5620    0.0000 H   0  0  0  0  0  0  0  0  0  0  0  0
   12.9904    8.2269    0.0000 H   0  0  0  0  0  0  0  0  0  0  0  0
   13.7828    6.1446    0.0000 H   0  0  0  0  0  0  0  0  0  0  0  0
   14.1813    5.4543    0.0000 H   0  0  0  0  0  0  0  0  0  0  0  0
   14.9303    9.3469    0.0000 H   0  0  0  0  0  0  0  0  0  0  0  0
   15.2594    9.1569    0.0000 H   0  0  0  0  0  0  0  0  0  0  0  0
   14.9303   18.3469    0.0000 H   0  0  0  0  0  0  0  0  0  0  0  0
    8.0021   18.3469    0.0000 H   0  0  0  0  0  0  0  0  0  0  0  0
    8.0021   18.7269    0.0000 H   0  0  0  0  0  0  0  0  0  0  0  0
   16.4545   11.2269    0.0000 H   0  0  0  0  0  0  0  0  0  0  0  0
   16.9914    9.9169    0.0000 H   0  0  0  0  0  0  0  0  0  0  0  0
    6.0622   19.8469    0.0000 H   0  0  0  0  0  0  0  0  0  0  0  0
    5.7331   19.6569    0.0000 H   0  0  0  0  0  0  0  0  0  0  0  0
   16.5929    2.0620    0.0000 H   0  0  0  0  0  0  0  0  0  0  0  0
   17.3899    2.0620    0.0000 H   0  0  0  0  0  0  0  0  0  0  0  0
    5.7331   17.4169    0.0000 H   0  0  0  0  0  0  0  0  0  0  0  0
    9.4092    0.4543    0.0000 H   0  0  0  0  0  0  0  0  0  0  0  0
    9.8078    1.1446    0.0000 H   0  0  0  0  0  0  0  0  0  0  0  0
    8.7297    3.0119    0.0000 H   0  0  0  0  0  0  0  0  0  0  0  0
    7.9326    3.0119    0.0000 H   0  0  0  0  0  0  0  0  0  0  0  0
   18.3944   12.3469    0.0000 H   0  0  0  0  0  0  0  0  0  0  0  0
   15.9133   10.6195    0.0000 H   0  0  0  0  0  0  0  0  0  0  0  0
   15.5148    9.9293    0.0000 H   0  0  0  0  0  0  0  0  0  0  0  0
   13.5273    1.9169    0.0000 H   0  0  0  0  0  0  0  0  0  0  0  0
   19.2604   11.2269    0.0000 H   0  0  0  0  0  0  0  0  0  0  0  0
    9.5263   13.2269    0.0000 H   0  0  0  0  0  0  0  0  0  0  0  0
   15.7963    1.2269    0.0000 H   0  0  0  0  0  0  0  0  0  0  0  0
   15.8699   14.4293    0.0000 H   0  0  0  0  0  0  0  0  0  0  0  0
   15.4714   15.1195    0.0000 H   0  0  0  0  0  0  0  0  0  0  0  0
   19.2604   10.8469    0.0000 H   0  0  0  0  0  0  0  0  0  0  0  0
    8.5432   12.9543    0.0000 H   0  0  0  0  0  0  0  0  0  0  0  0
    8.9417   13.6446    0.0000 H   0  0  0  0  0  0  0  0  0  0  0  0
   11.1847   13.6446    0.0000 H   0  0  0  0  0  0  0  0  0  0  0  0
   11.5832   12.9543    0.0000 H   0  0  0  0  0  0  0  0  0  0  0  0
   15.2594   12.6869    0.0000 H   0  0  0  0  0  0  0  0  0  0  0  0
   16.7360   12.9293    0.0000 H   0  0  0  0  0  0  0  0  0  0  0  0
   16.3374   13.6195    0.0000 H   0  0  0  0  0  0  0  0  0  0  0  0
   16.6623   16.3469    0.0000 H   0  0  0  0  0  0  0  0  0  0  0  0
    4.6550   18.1195    0.0000 H   0  0  0  0  0  0  0  0  0  0  0  0
    4.2565   17.4293    0.0000 H   0  0  0  0  0  0  0  0  0  0  0  0
   12.6613    6.4169    0.0000 H   0  0  0  0  0  0  0  0  0  0  0  0
    8.0212    1.0739    0.0000 H   0  0  0  0  0  0  0  0  0  0  0  0
    7.7942    0.2269    0.0000 H   0  0  0  0  0  0  0  0  0  0  0  0
    8.6412    0.0000    0.0000 H   0  0  0  0  0  0  0  0  0  0  0  0
    7.1551    2.5739    0.0000 H   0  0  0  0  0  0  0  0  0  0  0  0
    6.9282    1.7269    0.0000 H   0  0  0  0  0  0  0  0  0  0  0  0
    7.7751    1.5000    0.0000 H   0  0  0  0  0  0  0  0  0  0  0  0
    7.2531   13.6195    0.0000 H   0  0  0  0  0  0  0  0  0  0  0  0
    6.8546   12.9293    0.0000 H   0  0  0  0  0  0  0  0  0  0  0  0
   12.1244    8.7269    0.0000 H   0  0  0  0  0  0  0  0  0  0  0  0
   13.2719   12.9293    0.0000 H   0  0  0  0  0  0  0  0  0  0  0  0
   12.8733   13.6195    0.0000 H   0  0  0  0  0  0  0  0  0  0  0  0
   14.9303   10.3469    0.0000 H   0  0  0  0  0  0  0  0  0  0  0  0
   15.9133   19.6195    0.0000 H   0  0  0  0  0  0  0  0  0  0  0  0
   15.5148   18.9293    0.0000 H   0  0  0  0  0  0  0  0  0  0  0  0
   13.8564   19.3469    0.0000 H   0  0  0  0  0  0  0  0  0  0  0  0
    8.3312   20.1569    0.0000 H   0  0  0  0  0  0  0  0  0  0  0  0
    6.0622   20.8469    0.0000 H   0  0  0  0  0  0  0  0  0  0  0  0
   18.3944    2.7269    0.0000 H   0  0  0  0  0  0  0  0  0  0  0  0
   18.3944   13.3469    0.0000 H   0  0  0  0  0  0  0  0  0  0  0  0
    3.6025   18.5620    0.0000 H   0  0  0  0  0  0  0  0  0  0  0  0
    4.3996   18.5620    0.0000 H   0  0  0  0  0  0  0  0  0  0  0  0
   17.2035   18.9543    0.0000 H   0  0  0  0  0  0  0  0  0  0  0  0
   17.6020   19.6446    0.0000 H   0  0  0  0  0  0  0  0  0  0  0  0
   20.1264   11.7269    0.0000 H   0  0  0  0  0  0  0  0  0  0  0  0
   19.5895    9.4169    0.0000 H   0  0  0  0  0  0  0  0  0  0  0  0
    3.5335   20.0119    0.0000 H   0  0  0  0  0  0  0  0  0  0  0  0
    2.7365   20.0119    0.0000 H   0  0  0  0  0  0  0  0  0  0  0  0
   14.3933   12.4169    0.0000 H   0  0  0  0  0  0  0  0  0  0  0  0
    4.3301   16.2269    0.0000 H   0  0  0  0  0  0  0  0  0  0  0  0
    6.3871   12.1195    0.0000 H   0  0  0  0  0  0  0  0  0  0  0  0
    5.9885   11.4293    0.0000 H   0  0  0  0  0  0  0  0  0  0  0  0
    8.9417   11.4293    0.0000 H   0  0  0  0  0  0  0  0  0  0  0  0
    8.5432   12.1195    0.0000 H   0  0  0  0  0  0  0  0  0  0  0  0
   11.5832   12.1195    0.0000 H   0  0  0  0  0  0  0  0  0  0  0  0
   11.1847   11.4293    0.0000 H   0  0  0  0  0  0  0  0  0  0  0  0
   14.1379   11.4293    0.0000 H   0  0  0  0  0  0  0  0  0  0  0  0
   13.7394   12.1195    0.0000 H   0  0  0  0  0  0  0  0  0  0  0  0
   15.5148   21.1446    0.0000 H   0  0  0  0  0  0  0  0  0  0  0  0
   18.0695   20.4543    0.0000 H   0  0  0  0  0  0  0  0  0  0  0  0
   15.9133   20.4543    0.0000 H   0  0  0  0  0  0  0  0  0  0  0  0
   18.4680   21.1446    0.0000 H   0  0  0  0  0  0  0  0  0  0  0  0
    5.9791   10.5369    0.0000 H   0  0  0  0  0  0  0  0  0  0  0  0
    6.5991    9.9169    0.0000 H   0  0  0  0  0  0  0  0  0  0  0  0
    7.2191   10.5369    0.0000 H   0  0  0  0  0  0  0  0  0  0  0  0
    7.7112   10.5369    0.0000 H   0  0  0  0  0  0  0  0  0  0  0  0
    8.3312    9.9169    0.0000 H   0  0  0  0  0  0  0  0  0  0  0  0
    8.9512   10.5369    0.0000 H   0  0  0  0  0  0  0  0  0  0  0  0
   11.1753   10.5369    0.0000 H   0  0  0  0  0  0  0  0  0  0  0  0
   12.9073   10.5369    0.0000 H   0  0  0  0  0  0  0  0  0  0  0  0
   13.5273    9.9169    0.0000 H   0  0  0  0  0  0  0  0  0  0  0  0
   11.7953    9.9169    0.0000 H   0  0  0  0  0  0  0  0  0  0  0  0
   14.1473   10.5369    0.0000 H   0  0  0  0  0  0  0  0  0  0  0  0
   12.4153   10.5369    0.0000 H   0  0  0  0  0  0  0  0  0  0  0  0
    1.8015   20.0119    0.0000 H   0  0  0  0  0  0  0  0  0  0  0  0
    1.0044   20.0119    0.0000 H   0  0  0  0  0  0  0  0  0  0  0  0
    2.4810   17.4543    0.0000 H   0  0  0  0  0  0  0  0  0  0  0  0
    2.8796   18.1446    0.0000 H   0  0  0  0  0  0  0  0  0  0  0  0
   18.4774   22.0369    0.0000 H   0  0  0  0  0  0  0  0  0  0  0  0
   17.8574   22.6569    0.0000 H   0  0  0  0  0  0  0  0  0  0  0  0
   17.2374   22.0369    0.0000 H   0  0  0  0  0  0  0  0  0  0  0  0
   16.7454   22.0369    0.0000 H   0  0  0  0  0  0  0  0  0  0  0  0
   16.1254   22.6569    0.0000 H   0  0  0  0  0  0  0  0  0  0  0  0
   15.5054   22.0369    0.0000 H   0  0  0  0  0  0  0  0  0  0  0  0
    0.2269   19.5739    0.0000 H   0  0  0  0  0  0  0  0  0  0  0  0
    0.0000   18.7269    0.0000 H   0  0  0  0  0  0  0  0  0  0  0  0
    0.8469   18.5000    0.0000 H   0  0  0  0  0  0  0  0  0  0  0  0
    1.0930   18.0739    0.0000 H   0  0  0  0  0  0  0  0  0  0  0  0
    0.8660   17.2269    0.0000 H   0  0  0  0  0  0  0  0  0  0  0  0
    1.7130   17.0000    0.0000 H   0  0  0  0  0  0  0  0  0  0  0  0
  1 35  1  0  0  0  0 
  1 36  1  0  0  0  0 
  1 37  2  0  0  0  0 
  1 38  2  0  0  0  0 
 49  2  1  1  0  0  0 
  2 50  1  0  0  0  0 
  3 56  1  0  0  0  0 
  3 59  1  0  0  0  0 
  4 54  1  0  0  0  0 
  4 60  1  0  0  0  0 
 54  5  1  1  0  0  0 
  5 72  1  0  0  0  0 
 59  6  1  6  0  0  0 
  6 70  1  0  0  0  0 
  7 61  1  0  0  0  0 
  7 75  1  0  0  0  0 
 53  8  1  6  0  0  0 
  8 91  1  0  0  0  0 
  9 66  1  0  0  0  0 
  9 74  1  0  0  0  0 
 57 10  1  6  0  0  0 
 10 92  1  0  0  0  0 
 11 68  1  0  0  0  0 
 76 11  1  1  0  0  0 
 62 12  1  6  0  0  0 
 12 89  1  0  0  0  0 
 52 13  1  6  0  0  0 
 13180  1  0  0  0  0 
 55 14  1  1  0  0  0 
 14182  1  0  0  0  0 
 58 15  1  1  0  0  0 
 15183  1  0  0  0  0 
 16 76  1  0  0  0  0 
 16 83  1  0  0  0  0 
 74 17  1  1  0  0  0 
 17 87  1  0  0  0  0 
 67 18  1  6  0  0  0 
 18100  1  0  0  0  0 
 19 79  1  0  0  0  0 
 19 90  1  0  0  0  0 
 65 20  1  1  0  0  0 
 20194  1  0  0  0  0 
 78 21  1  1  0  0  0 
 21 94  1  0  0  0  0 
 69 22  1  1  0  0  0 
 22197  1  0  0  0  0 
 71 23  1  6  0  0  0 
 23206  1  0  0  0  0 
 81 24  1  1  0  0  0 
 24101  1  0  0  0  0 
 73 25  1  1  0  0  0 
 25209  1  0  0  0  0 
 75 26  1  6  0  0  0 
 26212  1  0  0  0  0 
 77 27  1  1  0  0  0 
 27213  1  0  0  0  0 
 80 28  1  6  0  0  0 
 28214  1  0  0  0  0 
 29 82  1  0  0  0  0 
 29215  1  0  0  0  0 
 86 30  1  6  0  0  0 
 30216  1  0  0  0  0 
 88 31  1  1  0  0  0 
 31221  1  0  0  0  0 
 90 32  1  1  0  0  0 
 32222  1  0  0  0  0 
 33 93  1  0  0  0  0 
 33225  1  0  0  0  0 
 34 95  1  0  0  0  0 
 34226  1  0  0  0  0 
 39 45  1  0  0  0  0 
 39 46  1  0  0  0  0 
 39 47  1  0  0  0  0 
 39 48  1  0  0  0  0 
 40 51  1  0  0  0  0 
 40 84  1  0  0  0  0 
 40 85  1  0  0  0  0 
 41 98  1  0  0  0  0 
 41104  1  0  0  0  0 
 41105  1  0  0  0  0 
 42 99  1  0  0  0  0 
 42106  1  0  0  0  0 
 42107  1  0  0  0  0 
 43102  1  0  0  0  0 
 43108  1  0  0  0  0 
 43109  1  0  0  0  0 
 44103  1  0  0  0  0 
 44114  1  0  0  0  0 
 44115  1  0  0  0  0 
 45 50  1  0  0  0  0 
 45120  1  0  0  0  0 
 45121  1  0  0  0  0 
 46 51  1  0  0  0  0 
 46122  1  0  0  0  0 
 46123  1  0  0  0  0 
 47 63  1  0  0  0  0 
 47124  1  0  0  0  0 
 47127  1  0  0  0  0 
 48 64  1  0  0  0  0 
 48125  1  0  0  0  0 
 48126  1  0  0  0  0 
 49 52  1  0  0  0  0 
 49 54  1  0  0  0  0 
 49128  1  0  0  0  0 
 50129  1  0  0  0  0 
 50130  1  0  0  0  0 
 51131  1  0  0  0  0 
 51132  1  0  0  0  0 
 52 58  1  0  0  0  0 
 52133  1  0  0  0  0 
 53 55  1  0  0  0  0 
 53 56  1  0  0  0  0 
 53134  1  0  0  0  0 
 54135  1  0  0  0  0 
 55 57  1  0  0  0  0 
 55136  1  0  0  0  0 
 56 68  1  1  0  0  0 
 56137  1  0  0  0  0 
 57 59  1  0  0  0  0 
 57138  1  0  0  0  0 
 58 60  1  0  0  0  0 
 58139  1  0  0  0  0 
 59140  1  0  0  0  0 
 60 82  1  6  0  0  0 
 60141  1  0  0  0  0 
 61 62  1  0  0  0  0 
 61 70  1  1  0  0  0 
 61142  1  0  0  0  0 
 62 65  1  0  0  0  0 
 62143  1  0  0  0  0 
 63146  1  0  0  0  0 
 63147  1  0  0  0  0 
 63149  1  0  0  0  0 
 64144  1  0  0  0  0 
 64145  1  0  0  0  0 
 64148  1  0  0  0  0 
 65 67  1  0  0  0  0 
 65150  1  0  0  0  0 
 66 69  1  0  0  0  0 
 66 72  1  6  0  0  0 
 66151  1  0  0  0  0 
 67 75  1  0  0  0  0 
 67152  1  0  0  0  0 
 68153  1  0  0  0  0 
 68154  1  0  0  0  0 
 69 71  1  0  0  0  0 
 69155  1  0  0  0  0 
 70156  1  0  0  0  0 
 70157  1  0  0  0  0 
 71 73  1  0  0  0  0 
 71158  1  0  0  0  0 
 72159  1  0  0  0  0 
 72160  1  0  0  0  0 
 73 74  1  0  0  0  0 
 73161  1  0  0  0  0 
 74162  1  0  0  0  0 
 75163  1  0  0  0  0 
 76 77  1  0  0  0  0 
 76164  1  0  0  0  0 
 77 80  1  0  0  0  0 
 77165  1  0  0  0  0 
 78 79  1  0  0  0  0 
 78 86  1  0  0  0  0 
 78166  1  0  0  0  0 
 79 87  1  6  0  0  0 
 79167  1  0  0  0  0 
 80 81  1  0  0  0  0 
 80168  1  0  0  0  0 
 81 83  1  0  0  0  0 
 81169  1  0  0  0  0 
 82170  1  0  0  0  0 
 82171  1  0  0  0  0 
 83 95  1  6  0  0  0 
 83172  1  0  0  0  0 
 84 96  1  0  0  0  0 
 84173  1  0  0  0  0 
 84174  1  0  0  0  0 
 85 97  1  0  0  0  0 
 85175  1  0  0  0  0 
 85176  1  0  0  0  0 
 86 88  1  0  0  0  0 
 86177  1  0  0  0  0 
 87178  1  0  0  0  0 
 87179  1  0  0  0  0 
 88 90  1  0  0  0  0 
 88181  1  0  0  0  0 
 89 93  1  0  0  0  0 
 89184  1  0  0  0  0 
 89185  1  0  0  0  0 
 90186  1  0  0  0  0 
 91 98  1  0  0  0  0 
 91187  1  0  0  0  0 
 91188  1  0  0  0  0 
 92 99  1  0  0  0  0 
 92189  1  0  0  0  0 
 92190  1  0  0  0  0 
 93 94  1  0  0  0  0 
 93191  1  0  0  0  0 
 94192  1  0  0  0  0 
 94193  1  0  0  0  0 
 95195  1  0  0  0  0 
 95196  1  0  0  0  0 
 96198  1  0  0  0  0 
 96199  1  0  0  0  0 
 96200  1  0  0  0  0 
 97201  1  0  0  0  0 
 97202  1  0  0  0  0 
 97203  1  0  0  0  0 
 98204  1  0  0  0  0 
 98205  1  0  0  0  0 
 99207  1  0  0  0  0 
 99208  1  0  0  0  0 
100102  1  0  0  0  0 
100210  1  0  0  0  0 
100211  1  0  0  0  0 
101103  1  0  0  0  0 
101217  1  0  0  0  0 
101218  1  0  0  0  0 
102219  1  0  0  0  0 
102220  1  0  0  0  0 
103223  1  0  0  0  0 
103224  1  0  0  0  0 
104110  1  0  0  0  0 
104227  1  0  0  0  0 
104228  1  0  0  0  0 
105111  1  0  0  0  0 
105229  1  0  0  0  0 
105230  1  0  0  0  0 
106112  1  0  0  0  0 
106233  1  0  0  0  0 
106234  1  0  0  0  0 
107113  1  0  0  0  0 
107231  1  0  0  0  0 
107232  1  0  0  0  0 
108116  1  0  0  0  0 
108236  1  0  0  0  0 
108238  1  0  0  0  0 
109117  1  0  0  0  0 
109235  1  0  0  0  0 
109237  1  0  0  0  0 
110239  1  0  0  0  0 
110240  1  0  0  0  0 
110241  1  0  0  0  0 
111242  1  0  0  0  0 
111243  1  0  0  0  0 
111244  1  0  0  0  0 
112246  1  0  0  0  0 
112247  1  0  0  0  0 
112249  1  0  0  0  0 
113245  1  0  0  0  0 
113248  1  0  0  0  0 
113250  1  0  0  0  0 
114118  1  0  0  0  0 
114251  1  0  0  0  0 
114252  1  0  0  0  0 
115119  1  0  0  0  0 
115253  1  0  0  0  0 
115254  1  0  0  0  0 
116255  1  0  0  0  0 
116256  1  0  0  0  0 
116257  1  0  0  0  0 
117258  1  0  0  0  0 
117259  1  0  0  0  0 
117260  1  0  0  0  0 
118261  1  0  0  0  0 
118262  1  0  0  0  0 
118263  1  0  0  0  0 
119264  1  0  0  0  0 
119265  1  0  0  0  0 
119266  1  0  0  0  0 
M  CHG  1  35  -1
M  CHG  1  36  -1
M  CHG  1  39   1
M  END
> <cdk:Title>
3085263

> <cdk:Remark>
null

> <PUBCHEM_COMPOUND_CID>
3085263

> <PUBCHEM_COMPOUND_CANONICALIZED>
1

> <PUBCHEM_CACTVS_COMPLEXITY>
2560

> <PUBCHEM_CACTVS_HBOND_ACCEPTOR>
42

> <PUBCHEM_CACTVS_HBOND_DONOR>
16

> <PUBCHEM_CACTVS_ROTATABLE_BOND>
55

> <PUBCHEM_CACTVS_SUBSKEYS>
AAADcfB/vgBAAAAAAAAAAAAAAAAAAAAAAAAkSJEiQAAAAAAAAAAAHgAACAAACBTxgAcCCAMABgAAAAAAADAAAAAAAAAAAAAIAAATUAIAAAAzQAAFAACXAAHAYAwAAAAAAAAAAAAAAAAAAAAAAAAAAAAAAA==

> <PUBCHEM_IUPAC_OPENEYE_NAME>
2-[(2S,3R,4S,5S,6R)-2-[[(2R,3S,4S,5R,6S)-6-[[(2R,3S,4R,5R,6S)-3-[3-[(2R,3S,4S,5R,6S)-2-[[(2S,3R,4S,5S,6R)-3,5-bis[2-(diethylamino)ethoxy]-6-[[(2S,3R,4R,5S,6R)-5-[2-(diethylamino)ethoxy]-3,4-dihydroxy-6-(hydroxymethyl)tetrahydropyran-2-yl]oxymethyl]-4-hydroxy-tetrahydropyran-2-yl]oxymethyl]-5-[2-(diethylamino)ethoxy]-4,6-dihydroxy-tetrahydropyran-3-yl]oxy-2-hydroxy-propoxy]-4,5,6-trihydroxy-tetrahydropyran-2-yl]methoxy]-3,4,5-trihydroxy-tetrahydropyran-2-yl]methoxy]-4,5-dihydroxy-6-(hydroxymethyl)tetrahydropyran-3-yl]oxyethyl-[2-(diethylamino)ethyl]-diethyl-ammonium;sulfate

> <PUBCHEM_IUPAC_CAS_NAME>
2-[[(2S,3R,4S,5S,6R)-2-[[(2R,3S,4S,5R,6S)-6-[[(2R,3S,4R,5R,6S)-3-[3-[[(2R,3S,4S,5R,6S)-2-[[(2S,3R,4S,5S,6R)-3,5-bis[2-(diethylamino)ethoxy]-6-[[(2S,3R,4R,5S,6R)-5-[2-(diethylamino)ethoxy]-3,4-dihydroxy-6-(hydroxymethyl)-2-oxanyl]oxymethyl]-4-hydroxy-2-oxanyl]oxymethyl]-5-[2-(diethylamino)ethoxy]-4,6-dihydroxy-3-oxanyl]oxy]-2-hydroxypropoxy]-4,5,6-trihydroxy-2-oxanyl]methoxy]-3,4,5-trihydroxy-2-oxanyl]methoxy]-4,5-dihydroxy-6-(hydroxymethyl)-3-oxanyl]oxy]ethyl-[2-(diethylamino)ethyl]-diethylammonium;sulfate

> <PUBCHEM_IUPAC_NAME>
2-[(2S,3R,4S,5S,6R)-2-[[(2R,3S,4S,5R,6S)-6-[[(2R,3S,4R,5R,6S)-3-[3-[(2R,3S,4S,5R,6S)-2-[[(2S,3R,4S,5S,6R)-3,5-bis[2-(diethylamino)ethoxy]-6-[[(2S,3R,4R,5S,6R)-5-[2-(diethylamino)ethoxy]-3,4-dihydroxy-6-(hydroxymethyl)oxan-2-yl]oxymethyl]-4-hydroxyoxan-2-yl]oxymethyl]-5-[2-(diethylamino)ethoxy]-4,6-dihydroxyoxan-3-yl]oxy-2-hydroxypropoxy]-4,5,6-trihydroxyoxan-2-yl]methoxy]-3,4,5-trihydroxyoxan-2-yl]methoxy]-4,5-dihydroxy-6-(hydroxymethyl)oxan-3-yl]oxyethyl-[2-(diethylamino)ethyl]-diethylazanium;sulfate

> <PUBCHEM_IUPAC_SYSTEMATIC_NAME>
2-[(2S,3R,4S,5S,6R)-2-[[(2R,3S,4S,5R,6S)-6-[[(2R,3S,4R,5R,6S)-3-[3-[(2R,3S,4S,5R,6S)-2-[[(2S,3R,4S,5S,6R)-3,5-bis[2-(diethylamino)ethoxy]-6-[[(2S,3R,4R,5S,6R)-5-[2-(diethylamino)ethoxy]-6-(hydroxymethyl)-3,4-bis(oxidanyl)oxan-2-yl]oxymethyl]-4-oxidanyl-oxan-2-yl]oxymethyl]-5-[2-(diethylamino)ethoxy]-4,6-bis(oxidanyl)oxan-3-yl]oxy-2-oxidanyl-propoxy]-4,5,6-tris(oxidanyl)oxan-2-yl]methoxy]-3,4,5-tris(oxidanyl)oxan-2-yl]methoxy]-6-(hydroxymethyl)-4,5-bis(oxidanyl)oxan-3-yl]oxyethyl-[2-(diethylamino)ethyl]-diethyl-azanium;sulfate

> <PUBCHEM_IUPAC_TRADITIONAL_NAME>
2-[(2S,3R,4S,5S,6R)-2-[[(2R,3S,4S,5R,6S)-6-[[(2R,3S,4R,5R,6S)-3-[3-[(2R,3S,4S,5R,6S)-2-[[(2S,3R,4S,5S,6R)-3,5-bis[2-(diethylamino)ethoxy]-6-[[(2S,3R,4R,5S,6R)-5-[2-(diethylamino)ethoxy]-3,4-dihydroxy-6-methylol-tetrahydropyran-2-yl]oxymethyl]-4-hydroxy-tetrahydropyran-2-yl]oxymethyl]-5-[2-(diethylamino)ethoxy]-4,6-dihydroxy-tetrahydropyran-3-yl]oxy-2-hydroxy-propoxy]-4,5,6-trihydroxy-tetrahydropyran-2-yl]methoxy]-3,4,5-trihydroxy-tetrahydropyran-2-yl]methoxy]-4,5-dihydroxy-6-methylol-tetrahydropyran-3-yl]oxyethyl-[2-(diethylamino)ethyl]-diethyl-ammonium;sulfate

> <PUBCHEM_IUPAC_INCHI>
InChI=1S/C75H147N6O33.H2O4S/c1-13-76(14-2)25-30-81(23-11,24-12)31-36-102-68-55(88)52(85)46(37-82)111-74(68)107-41-48-53(86)54(87)59(92)72(113-48)105-42-49-64(56(89)58(91)70(96)109-49)103-39-45(84)40-104-66-50(110-71(97)67(61(66)94)100-34-28-79(19-7)20-8)43-108-75-69(101-35-29-80(21-9)22-10)62(95)65(99-33-27-78(17-5)18-6)51(114-75)44-106-73-60(93)57(90)63(47(38-83)112-73)98-32-26-77(15-3)16-4;1-5(2,3)4/h45-75,82-97H,13-44H2,1-12H3;(H2,1,2,3,4)/q+1;/p-2/t45?,46-,47-,48-,49-,50-,51-,52-,53-,54+,55+,56-,57-,58-,59-,60-,61+,62+,63-,64-,65-,66-,67-,68-,69-,70+,71+,72+,73+,74+,75+;/m1./s1

> <PUBCHEM_IUPAC_INCHIKEY>
FOBBBZLWSIXGAU-YTILWJEISA-L

> <PUBCHEM_EXACT_MASS>
1755.952636

> <PUBCHEM_MOLECULAR_FORMULA>
C75H147N6O37S-

> <PUBCHEM_MOLECULAR_WEIGHT>
1757.05268

> <PUBCHEM_OPENEYE_CAN_SMILES>
CCN(CC)CC[N+](CC)(CC)CCOC1C(C(C(OC1OCC2C(C(C(C(O2)OCC3C(C(C(C(O3)O)O)O)OCC(COC4C(OC(C(C4O)OCCN(CC)CC)O)COC5C(C(C(C(O5)COC6C(C(C(C(O6)CO)OCCN(CC)CC)O)O)OCCN(CC)CC)O)OCCN(CC)CC)O)O)O)O)CO)O)O.[O-]S(=O)(=O)[O-]

> <PUBCHEM_OPENEYE_ISO_SMILES>
CCN(CC)CC[N+](CC)(CC)CCO[C@@H]1[C@H]([C@@H]([C@H](O[C@@H]1OC[C@@H]2[C@H]([C@@H]([C@H]([C@H](O2)OC[C@@H]3[C@H]([C@@H]([C@H]([C@H](O3)O)O)O)OCC(CO[C@@H]4[C@H](O[C@@H]([C@@H]([C@H]4O)OCCN(CC)CC)O)CO[C@@H]5[C@@H]([C@H]([C@@H]([C@H](O5)CO[C@@H]6[C@@H]([C@H]([C@@H]([C@H](O6)CO)OCCN(CC)CC)O)O)OCCN(CC)CC)O)OCCN(CC)CC)O)O)O)O)CO)O)O.[O-]S(=O)(=O)[O-]

> <PUBCHEM_CACTVS_TPSA>
585

> <PUBCHEM_MONOISOTOPIC_WEIGHT>
1755.952636

> <PUBCHEM_TOTAL_CHARGE>
-1

> <PUBCHEM_HEAVY_ATOM_COUNT>
119

> <PUBCHEM_ATOM_DEF_STEREO_COUNT>
30

> <PUBCHEM_ATOM_UDEF_STEREO_COUNT>
1

> <PUBCHEM_BOND_DEF_STEREO_COUNT>
0

> <PUBCHEM_BOND_UDEF_STEREO_COUNT>
0

> <PUBCHEM_ISOTOPIC_ATOM_COUNT>
0

> <PUBCHEM_COMPONENT_COUNT>
2

> <PUBCHEM_CACTVS_TAUTO_COUNT>
1

> <PUBCHEM_COORDINATE_TYPE>
1
5
255

> <PUBCHEM_BONDANNOTATIONS>
57  10  6
76  11  5
62  12  6
52  13  6
55  14  5
58  15  5
74  17  5
67  18  6
49  2  5
65  20  5
78  21  5
69  22  5
71  23  6
81  24  5
73  25  5
75  26  6
77  27  5
80  28  6
86  30  6
88  31  5
90  32  5
54  5  5
56  68  5
59  6  6
60  82  6
61  70  5
66  72  6
79  87  6
53  8  6
83  95  6
93  191  3

> <DRUG_ID>
w38

> <DRUG_NAME>
Polydexide sulfate

$$$$
904
  CDK     0927151942
null
 19 19  0  0  0  0  0  0  0  0999 V2000
    4.5981    0.7500    0.0000 O   0  0  0  0  0  0  0  0  0  0  0  0
    2.8660    0.7500    0.0000 N   0  0  0  0  0  0  0  0  0  0  0  0
    2.8660   -0.2500    0.0000 C   0  0  0  0  0  0  0  0  0  0  0  0
    2.0000   -0.7500    0.0000 C   0  0  0  0  0  0  0  0  0  0  0  0
    3.7320   -0.7500    0.0000 C   0  0  0  0  0  0  0  0  0  0  0  0
    2.0000   -1.7500    0.0000 C   0  0  0  0  0  0  0  0  0  0  0  0
    3.7320   -1.7500    0.0000 C   0  0  0  0  0  0  0  0  0  0  0  0
    2.8660   -2.2500    0.0000 C   0  0  0  0  0  0  0  0  0  0  0  0
    3.7320    1.2500    0.0000 C   0  0  0  0  0  0  0  0  0  0  0  0
    3.7320    2.2500    0.0000 C   0  0  0  0  0  0  0  0  0  0  0  0
    1.4631   -0.4400    0.0000 H   0  0  0  0  0  0  0  0  0  0  0  0
    4.2690   -0.4400    0.0000 H   0  0  0  0  0  0  0  0  0  0  0  0
    2.3291    1.0600    0.0000 H   0  0  0  0  0  0  0  0  0  0  0  0
    1.4631   -2.0600    0.0000 H   0  0  0  0  0  0  0  0  0  0  0  0
    4.2690   -2.0600    0.0000 H   0  0  0  0  0  0  0  0  0  0  0  0
    2.8660   -2.8700    0.0000 H   0  0  0  0  0  0  0  0  0  0  0  0
    4.3520    2.2500    0.0000 H   0  0  0  0  0  0  0  0  0  0  0  0
    3.7320    2.8700    0.0000 H   0  0  0  0  0  0  0  0  0  0  0  0
    3.1120    2.2500    0.0000 H   0  0  0  0  0  0  0  0  0  0  0  0
  1  9  2  0  0  0  0 
  2  3  1  0  0  0  0 
  2  9  1  0  0  0  0 
  2 13  1  0  0  0  0 
  3  4  2  0  0  0  0 
  3  5  1  0  0  0  0 
  4  6  1  0  0  0  0 
  4 11  1  0  0  0  0 
  5  7  2  0  0  0  0 
  5 12  1  0  0  0  0 
  6  8  2  0  0  0  0 
  6 14  1  0  0  0  0 
  7  8  1  0  0  0  0 
  7 15  1  0  0  0  0 
  8 16  1  0  0  0  0 
  9 10  1  0  0  0  0 
 10 17  1  0  0  0  0 
 10 18  1  0  0  0  0 
 10 19  1  0  0  0  0 
M  END
> <cdk:Title>
904

> <cdk:Remark>
null

> <PUBCHEM_COMPOUND_CID>
904

> <PUBCHEM_COMPOUND_CANONICALIZED>
1

> <PUBCHEM_CACTVS_COMPLEXITY>
116

> <PUBCHEM_CACTVS_HBOND_ACCEPTOR>
1

> <PUBCHEM_CACTVS_HBOND_DONOR>
1

> <PUBCHEM_CACTVS_ROTATABLE_BOND>
1

> <PUBCHEM_CACTVS_SUBSKEYS>
AAADccByIAAAAAAAAAAAAAAAAAAAAAAAAAAwAAAAAAAAAAABAAAAHgAQAAAACAiBkAAywILAAACIACVSUACCAAAhAgAIiAAAZIgIICLAkZGEIAhglADIyAcQAAAAAAAAAAAAAAAAAAAAAAAAAAAAAAAAAA==

> <PUBCHEM_IUPAC_OPENEYE_NAME>
N-phenylacetamide

> <PUBCHEM_IUPAC_CAS_NAME>
N-phenylacetamide

> <PUBCHEM_IUPAC_NAME>
N-phenylacetamide

> <PUBCHEM_IUPAC_SYSTEMATIC_NAME>
N-phenylethanamide

> <PUBCHEM_IUPAC_TRADITIONAL_NAME>
N-phenylacetamide

> <PUBCHEM_IUPAC_INCHI>
InChI=1S/C8H9NO/c1-7(10)9-8-5-3-2-4-6-8/h2-6H,1H3,(H,9,10)

> <PUBCHEM_IUPAC_INCHIKEY>
FZERHIULMFGESH-UHFFFAOYSA-N

> <PUBCHEM_XLOGP3>
1.2

> <PUBCHEM_EXACT_MASS>
135.068414

> <PUBCHEM_MOLECULAR_FORMULA>
C8H9NO

> <PUBCHEM_MOLECULAR_WEIGHT>
135.16316

> <PUBCHEM_OPENEYE_CAN_SMILES>
CC(=O)NC1=CC=CC=C1

> <PUBCHEM_OPENEYE_ISO_SMILES>
CC(=O)NC1=CC=CC=C1

> <PUBCHEM_CACTVS_TPSA>
29.1

> <PUBCHEM_MONOISOTOPIC_WEIGHT>
135.068414

> <PUBCHEM_TOTAL_CHARGE>
0

> <PUBCHEM_HEAVY_ATOM_COUNT>
10

> <PUBCHEM_ATOM_DEF_STEREO_COUNT>
0

> <PUBCHEM_ATOM_UDEF_STEREO_COUNT>
0

> <PUBCHEM_BOND_DEF_STEREO_COUNT>
0

> <PUBCHEM_BOND_UDEF_STEREO_COUNT>
0

> <PUBCHEM_ISOTOPIC_ATOM_COUNT>
0

> <PUBCHEM_COMPONENT_COUNT>
1

> <PUBCHEM_CACTVS_TAUTO_COUNT>
3

> <PUBCHEM_COORDINATE_TYPE>
1
5
255

> <PUBCHEM_BONDANNOTATIONS>
3  4  8
3  5  8
4  6  8
5  7  8
6  8  8
7  8  8

> <DRUG_ID>
w39

> <DRUG_NAME>
Acetanilide

$$$$
72474
  CDK     0927151942
null
 48 51  0  0  0  0  0  0  0  0999 V2000
    8.6651    1.7706    0.0000 F   0  0  0  0  0  0  0  0  0  0  0  0
    5.1350    2.7464    0.0000 O   0  0  0  0  0  0  0  0  0  0  0  0
    2.5369    1.2464    0.0000 O   0  0  0  0  0  0  0  0  0  0  0  0
    3.4030    2.7464    0.0000 O   0  0  0  0  0  0  0  0  0  0  0  0
    5.1350   -0.2536    0.0000 N   0  0  0  0  0  0  0  0  0  0  0  0
    8.6651   -0.2777    0.0000 N   0  0  3  0  0  0  0  0  0  0  0  0
   10.3933   -1.2844    0.0000 N   0  0  0  0  0  0  0  0  0  0  0  0
    5.1350   -1.2536    0.0000 C   0  0  0  0  0  0  0  0  0  0  0  0
    4.6350   -2.1196    0.0000 C   0  0  0  0  0  0  0  0  0  0  0  0
    5.6350   -2.1196    0.0000 C   0  0  0  0  0  0  0  0  0  0  0  0
    6.0010    0.2464    0.0000 C   0  0  0  0  0  0  0  0  0  0  0  0
    4.2690    0.2464    0.0000 C   0  0  0  0  0  0  0  0  0  0  0  0
    6.0010    1.2464    0.0000 C   0  0  0  0  0  0  0  0  0  0  0  0
    7.8010    0.2256    0.0000 C   0  0  0  0  0  0  0  0  0  0  0  0
    8.6613   -1.2777    0.0000 C   0  0  0  0  0  0  0  0  0  0  0  0
    6.8950   -0.2882    0.0000 C   0  0  0  0  0  0  0  0  0  0  0  0
    9.5254   -1.7810    0.0000 C   0  0  3  0  0  0  0  0  0  0  0  0
    9.5331    0.2189    0.0000 C   0  0  0  0  0  0  0  0  0  0  0  0
   10.3972   -0.2844    0.0000 C   0  0  0  0  0  0  0  0  0  0  0  0
    6.8950    1.7811    0.0000 C   0  0  0  0  0  0  0  0  0  0  0  0
    4.2690    1.2464    0.0000 C   0  0  0  0  0  0  0  0  0  0  0  0
    5.1350    1.7464    0.0000 C   0  0  0  0  0  0  0  0  0  0  0  0
    7.8010    1.2672    0.0000 C   0  0  0  0  0  0  0  0  0  0  0  0
    9.5215   -2.7810    0.0000 C   0  0  0  0  0  0  0  0  0  0  0  0
    6.8834    2.7810    0.0000 C   0  0  0  0  0  0  0  0  0  0  0  0
    3.4030    1.7464    0.0000 C   0  0  0  0  0  0  0  0  0  0  0  0
    5.7339   -1.0931    0.0000 H   0  0  0  0  0  0  0  0  0  0  0  0
    5.7427   -2.7302    0.0000 H   0  0  0  0  0  0  0  0  0  0  0  0
    6.2176   -1.9075    0.0000 H   0  0  0  0  0  0  0  0  0  0  0  0
    4.0524   -1.9075    0.0000 H   0  0  0  0  0  0  0  0  0  0  0  0
    4.5274   -2.7302    0.0000 H   0  0  0  0  0  0  0  0  0  0  0  0
    3.7320   -0.0636    0.0000 H   0  0  0  0  0  0  0  0  0  0  0  0
    8.0511   -1.1677    0.0000 H   0  0  0  0  0  0  0  0  0  0  0  0
    8.4470   -1.8595    0.0000 H   0  0  0  0  0  0  0  0  0  0  0  0
   10.0611   -2.0931    0.0000 H   0  0  0  0  0  0  0  0  0  0  0  0
    6.8878   -0.9082    0.0000 H   0  0  0  0  0  0  0  0  0  0  0  0
    9.9334    0.6924    0.0000 H   0  0  0  0  0  0  0  0  0  0  0  0
    9.1364    0.6954    0.0000 H   0  0  0  0  0  0  0  0  0  0  0  0
   11.0073   -0.3944    0.0000 H   0  0  0  0  0  0  0  0  0  0  0  0
   10.6115    0.2974    0.0000 H   0  0  0  0  0  0  0  0  0  0  0  0
   10.9291   -1.5964    0.0000 H   0  0  0  0  0  0  0  0  0  0  0  0
    8.9015   -2.7786    0.0000 H   0  0  0  0  0  0  0  0  0  0  0  0
    9.5191   -3.4010    0.0000 H   0  0  0  0  0  0  0  0  0  0  0  0
   10.1415   -2.7834    0.0000 H   0  0  0  0  0  0  0  0  0  0  0  0
    7.5034    2.7882    0.0000 H   0  0  0  0  0  0  0  0  0  0  0  0
    6.8762    3.4010    0.0000 H   0  0  0  0  0  0  0  0  0  0  0  0
    6.2635    2.7739    0.0000 H   0  0  0  0  0  0  0  0  0  0  0  0
    2.0000    1.5564    0.0000 H   0  0  0  0  0  0  0  0  0  0  0  0
  1 23  1  0  0  0  0 
  2 22  2  0  0  0  0 
  3 26  1  0  0  0  0 
  3 48  1  0  0  0  0 
  4 26  2  0  0  0  0 
  5  8  1  0  0  0  0 
  5 11  1  0  0  0  0 
  5 12  1  0  0  0  0 
  6 14  1  0  0  0  0 
  6 15  1  0  0  0  0 
  6 18  1  0  0  0  0 
  7 17  1  0  0  0  0 
  7 19  1  0  0  0  0 
  7 41  1  0  0  0  0 
  8  9  1  0  0  0  0 
  8 10  1  0  0  0  0 
  8 27  1  0  0  0  0 
  9 10  1  0  0  0  0 
  9 30  1  0  0  0  0 
  9 31  1  0  0  0  0 
 10 28  1  0  0  0  0 
 10 29  1  0  0  0  0 
 11 13  1  0  0  0  0 
 11 16  2  0  0  0  0 
 12 21  2  0  0  0  0 
 12 32  1  0  0  0  0 
 13 20  2  0  0  0  0 
 13 22  1  0  0  0  0 
 14 16  1  0  0  0  0 
 14 23  2  0  0  0  0 
 15 17  1  0  0  0  0 
 15 33  1  0  0  0  0 
 15 34  1  0  0  0  0 
 16 36  1  0  0  0  0 
 17 24  1  0  0  0  0 
 17 35  1  0  0  0  0 
 18 19  1  0  0  0  0 
 18 37  1  0  0  0  0 
 18 38  1  0  0  0  0 
 19 39  1  0  0  0  0 
 19 40  1  0  0  0  0 
 20 23  1  0  0  0  0 
 20 25  1  0  0  0  0 
 21 22  1  0  0  0  0 
 21 26  1  0  0  0  0 
 24 42  1  0  0  0  0 
 24 43  1  0  0  0  0 
 24 44  1  0  0  0  0 
 25 45  1  0  0  0  0 
 25 46  1  0  0  0  0 
 25 47  1  0  0  0  0 
M  END
> <cdk:Title>
72474

> <cdk:Remark>
null

> <PUBCHEM_COMPOUND_CID>
72474

> <PUBCHEM_COMPOUND_CANONICALIZED>
1

> <PUBCHEM_CACTVS_COMPLEXITY>
636

> <PUBCHEM_CACTVS_HBOND_ACCEPTOR>
7

> <PUBCHEM_CACTVS_HBOND_DONOR>
2

> <PUBCHEM_CACTVS_ROTATABLE_BOND>
3

> <PUBCHEM_CACTVS_SUBSKEYS>
AAADceB7MQAAAAAAAAAAAAAAGAAAAAAAAAA8QIAAAAAAAACBAAAAHwAQCAAADCzBmAwyyIPAAgCIAqTWSACCAAAlAgAAiIEIZMgIZD7I1NGUYYhksADI2ceY2bOeiAAAQAQSAAAQAACACCQAAAAAAAAAAA==

> <PUBCHEM_IUPAC_OPENEYE_NAME>
1-cyclopropyl-6-fluoro-5-methyl-7-(3-methylpiperazin-1-yl)-4-oxo-quinoline-3-carboxylic acid

> <PUBCHEM_IUPAC_CAS_NAME>
1-cyclopropyl-6-fluoro-5-methyl-7-(3-methyl-1-piperazinyl)-4-oxo-3-quinolinecarboxylic acid

> <PUBCHEM_IUPAC_NAME>
1-cyclopropyl-6-fluoro-5-methyl-7-(3-methylpiperazin-1-yl)-4-oxoquinoline-3-carboxylic acid

> <PUBCHEM_IUPAC_SYSTEMATIC_NAME>
1-cyclopropyl-6-fluoranyl-5-methyl-7-(3-methylpiperazin-1-yl)-4-oxidanylidene-quinoline-3-carboxylic acid

> <PUBCHEM_IUPAC_TRADITIONAL_NAME>
1-cyclopropyl-6-fluoro-4-keto-5-methyl-7-(3-methylpiperazino)quinoline-3-carboxylic acid

> <PUBCHEM_IUPAC_INCHI>
InChI=1S/C19H22FN3O3/c1-10-8-22(6-5-21-10)15-7-14-16(11(2)17(15)20)18(24)13(19(25)26)9-23(14)12-3-4-12/h7,9-10,12,21H,3-6,8H2,1-2H3,(H,25,26)

> <PUBCHEM_IUPAC_INCHIKEY>
AIJTTZAVMXIJGM-UHFFFAOYSA-N

> <PUBCHEM_XLOGP3>
-0.2

> <PUBCHEM_EXACT_MASS>
359.16452

> <PUBCHEM_MOLECULAR_FORMULA>
C19H22FN3O3

> <PUBCHEM_MOLECULAR_WEIGHT>
359.394683

> <PUBCHEM_OPENEYE_CAN_SMILES>
CC1CN(CCN1)C2=C(C(=C3C(=C2)N(C=C(C3=O)C(=O)O)C4CC4)C)F

> <PUBCHEM_OPENEYE_ISO_SMILES>
CC1CN(CCN1)C2=C(C(=C3C(=C2)N(C=C(C3=O)C(=O)O)C4CC4)C)F

> <PUBCHEM_CACTVS_TPSA>
72.9

> <PUBCHEM_MONOISOTOPIC_WEIGHT>
359.16452

> <PUBCHEM_TOTAL_CHARGE>
0

> <PUBCHEM_HEAVY_ATOM_COUNT>
26

> <PUBCHEM_ATOM_DEF_STEREO_COUNT>
0

> <PUBCHEM_ATOM_UDEF_STEREO_COUNT>
1

> <PUBCHEM_BOND_DEF_STEREO_COUNT>
0

> <PUBCHEM_BOND_UDEF_STEREO_COUNT>
0

> <PUBCHEM_ISOTOPIC_ATOM_COUNT>
0

> <PUBCHEM_COMPONENT_COUNT>
1

> <PUBCHEM_CACTVS_TAUTO_COUNT>
1

> <PUBCHEM_COORDINATE_TYPE>
1
5
255

> <PUBCHEM_BONDANNOTATIONS>
11  13  8
11  16  8
12  21  8
13  20  8
13  22  8
14  16  8
14  23  8
17  24  3
20  23  8
21  22  8
5  11  8
5  12  8

> <DRUG_ID>
w4

> <DRUG_NAME>
Grepafloxacin

$$$$
5282192
  CDK     0927151942
null
 33 34  0  0  0  0  0  0  0  0999 V2000
    7.6849    2.8815    0.0000 Br  0  0  0  0  0  0  0  0  0  0  0  0
    5.0298   -0.7063    0.0000 O   0  0  0  0  0  0  0  0  0  0  0  0
    2.4608   -0.3973    0.0000 O   0  0  0  0  0  0  0  0  0  0  0  0
    3.1330   -2.4664    0.0000 O   0  0  0  0  0  0  0  0  0  0  0  0
    4.9019   -3.3799    0.0000 O   0  0  0  0  0  0  0  0  0  0  0  0
    2.4888    0.8815    0.0000 O   0  0  0  0  0  0  0  0  0  0  0  0
    4.2208    3.8815    0.0000 O   0  0  0  0  0  0  0  0  0  0  0  0
    4.2208    0.8815    0.0000 N   0  0  0  0  0  0  0  0  0  0  0  0
    3.3548    2.3815    0.0000 N   0  0  0  0  0  0  0  0  0  0  0  0
    3.4118   -0.7063    0.0000 C   0  0  1  0  0  0  0  0  0  0  0  0
    3.7208   -1.6573    0.0000 C   0  0  1  0  0  0  0  0  0  0  0  0
    4.2208   -0.1185    0.0000 C   0  0  1  0  0  0  0  0  0  0  0  0
    4.7208   -1.6573    0.0000 C   0  0  1  0  0  0  0  0  0  0  0  0
    5.3086   -2.4664    0.0000 C   0  0  0  0  0  0  0  0  0  0  0  0
    5.0868    1.3815    0.0000 C   0  0  0  0  0  0  0  0  0  0  0  0
    3.3548    1.3815    0.0000 C   0  0  0  0  0  0  0  0  0  0  0  0
    5.0868    2.3815    0.0000 C   0  0  0  0  0  0  0  0  0  0  0  0
    4.2208    2.8815    0.0000 C   0  0  0  0  0  0  0  0  0  0  0  0
    5.9529    2.8815    0.0000 C   0  0  0  0  0  0  0  0  0  0  0  0
    6.8189    2.3815    0.0000 C   0  0  0  0  0  0  0  0  0  0  0  0
    3.3148   -0.0939    0.0000 H   0  0  0  0  0  0  0  0  0  0  0  0
    4.0023   -2.2098    0.0000 H   0  0  0  0  0  0  0  0  0  0  0  0
    3.6684    0.1630    0.0000 H   0  0  0  0  0  0  0  0  0  0  0  0
    5.3332   -1.5604    0.0000 H   0  0  0  0  0  0  0  0  0  0  0  0
    5.8226   -2.8131    0.0000 H   0  0  0  0  0  0  0  0  0  0  0  0
    5.7393   -2.0204    0.0000 H   0  0  0  0  0  0  0  0  0  0  0  0
    2.0000   -0.8121    0.0000 H   0  0  0  0  0  0  0  0  0  0  0  0
    3.3852   -3.0328    0.0000 H   0  0  0  0  0  0  0  0  0  0  0  0
    5.6238    1.0715    0.0000 H   0  0  0  0  0  0  0  0  0  0  0  0
    2.8179    2.6915    0.0000 H   0  0  0  0  0  0  0  0  0  0  0  0
    5.2663   -3.8815    0.0000 H   0  0  0  0  0  0  0  0  0  0  0  0
    5.9529    3.5015    0.0000 H   0  0  0  0  0  0  0  0  0  0  0  0
    6.8189    1.7615    0.0000 H   0  0  0  0  0  0  0  0  0  0  0  0
  1 20  1  0  0  0  0 
  2 12  1  0  0  0  0 
  2 13  1  0  0  0  0 
 10  3  1  6  0  0  0 
  3 27  1  0  0  0  0 
 11  4  1  1  0  0  0 
  4 28  1  0  0  0  0 
  5 14  1  0  0  0  0 
  5 31  1  0  0  0  0 
  6 16  2  0  0  0  0 
  7 18  2  0  0  0  0 
 12  8  1  6  0  0  0 
  8 15  1  0  0  0  0 
  8 16  1  0  0  0  0 
  9 16  1  0  0  0  0 
  9 18  1  0  0  0  0 
  9 30  1  0  0  0  0 
 10 11  1  0  0  0  0 
 10 12  1  0  0  0  0 
 10 21  1  0  0  0  0 
 11 13  1  0  0  0  0 
 11 22  1  0  0  0  0 
 12 23  1  0  0  0  0 
 13 14  1  6  0  0  0 
 13 24  1  0  0  0  0 
 14 25  1  0  0  0  0 
 14 26  1  0  0  0  0 
 15 17  2  0  0  0  0 
 15 29  1  0  0  0  0 
 17 18  1  0  0  0  0 
 17 19  1  0  0  0  0 
 19 20  2  0  0  0  0 
 19 32  1  0  0  0  0 
 20 33  1  0  0  0  0 
M  END
> <cdk:Title>
5282192

> <cdk:Remark>
null

> <PUBCHEM_COMPOUND_CID>
5282192

> <PUBCHEM_COMPOUND_CANONICALIZED>
1

> <PUBCHEM_CACTVS_COMPLEXITY>
480

> <PUBCHEM_CACTVS_HBOND_ACCEPTOR>
6

> <PUBCHEM_CACTVS_HBOND_DONOR>
4

> <PUBCHEM_CACTVS_ROTATABLE_BOND>
3

> <PUBCHEM_CACTVS_SUBSKEYS>
AAADccBzOAAAEAAAAAAAAAAAAAAAASAAAAAgAAAAAAAAAAAAAAAAHgBQCAABTBThgAYBAAPABgCIAiFWUACAAAAgAAAIAAEIAEiLEAIAgQAOQAAPByITAMDwMAIAAAAAAAAAAAAAAAAAAAAAAAAAAAAAAA==

> <PUBCHEM_IUPAC_OPENEYE_NAME>
5-[(E)-2-bromovinyl]-1-[(2R,3S,4S,5R)-3,4-dihydroxy-5-(hydroxymethyl)tetrahydrofuran-2-yl]pyrimidine-2,4-dione

> <PUBCHEM_IUPAC_CAS_NAME>
5-[(E)-2-bromoethenyl]-1-[(2R,3S,4S,5R)-3,4-dihydroxy-5-(hydroxymethyl)-2-oxolanyl]pyrimidine-2,4-dione

> <PUBCHEM_IUPAC_NAME>
5-[(E)-2-bromoethenyl]-1-[(2R,3S,4S,5R)-3,4-dihydroxy-5-(hydroxymethyl)oxolan-2-yl]pyrimidine-2,4-dione

> <PUBCHEM_IUPAC_SYSTEMATIC_NAME>
5-[(E)-2-bromanylethenyl]-1-[(2R,3S,4S,5R)-5-(hydroxymethyl)-3,4-bis(oxidanyl)oxolan-2-yl]pyrimidine-2,4-dione

> <PUBCHEM_IUPAC_TRADITIONAL_NAME>
5-[(E)-2-bromovinyl]-1-[(2R,3S,4S,5R)-3,4-dihydroxy-5-methylol-tetrahydrofuran-2-yl]pyrimidine-2,4-quinone

> <PUBCHEM_IUPAC_INCHI>
InChI=1S/C11H13BrN2O6/c12-2-1-5-3-14(11(19)13-9(5)18)10-8(17)7(16)6(4-15)20-10/h1-3,6-8,10,15-17H,4H2,(H,13,18,19)/b2-1+/t6-,7-,8+,10-/m1/s1

> <PUBCHEM_IUPAC_INCHIKEY>
GCQYYIHYQMVWLT-HQNLTJAPSA-N

> <PUBCHEM_XLOGP3>
-0.9

> <PUBCHEM_EXACT_MASS>
347.995698

> <PUBCHEM_MOLECULAR_FORMULA>
C11H13BrN2O6

> <PUBCHEM_MOLECULAR_WEIGHT>
349.13472

> <PUBCHEM_OPENEYE_CAN_SMILES>
C1=C(C(=O)NC(=O)N1C2C(C(C(O2)CO)O)O)C=CBr

> <PUBCHEM_OPENEYE_ISO_SMILES>
C1=C(C(=O)NC(=O)N1[C@H]2[C@H]([C@@H]([C@H](O2)CO)O)O)/C=C/Br

> <PUBCHEM_CACTVS_TPSA>
119

> <PUBCHEM_MONOISOTOPIC_WEIGHT>
347.995698

> <PUBCHEM_TOTAL_CHARGE>
0

> <PUBCHEM_HEAVY_ATOM_COUNT>
20

> <PUBCHEM_ATOM_DEF_STEREO_COUNT>
4

> <PUBCHEM_ATOM_UDEF_STEREO_COUNT>
0

> <PUBCHEM_BOND_DEF_STEREO_COUNT>
1

> <PUBCHEM_BOND_UDEF_STEREO_COUNT>
0

> <PUBCHEM_ISOTOPIC_ATOM_COUNT>
0

> <PUBCHEM_COMPONENT_COUNT>
1

> <PUBCHEM_CACTVS_TAUTO_COUNT>
3

> <PUBCHEM_COORDINATE_TYPE>
1
5
255

> <PUBCHEM_BONDANNOTATIONS>
13  14  6
15  17  8
17  18  8
10  3  6
11  4  5
12  8  6
8  15  8
8  16  8
9  16  8
9  18  8

> <DRUG_ID>
w40

> <DRUG_NAME>
Sorivudine

$$$$
4837
  CDK     0927151942
null
 16 16  0  0  0  0  0  0  0  0999 V2000
    2.8660   -1.0000    0.0000 N   0  0  0  0  0  0  0  0  0  0  0  0
    2.8660    1.0000    0.0000 N   0  0  0  0  0  0  0  0  0  0  0  0
    2.0000   -0.5000    0.0000 C   0  0  0  0  0  0  0  0  0  0  0  0
    3.7320   -0.5000    0.0000 C   0  0  0  0  0  0  0  0  0  0  0  0
    2.0000    0.5000    0.0000 C   0  0  0  0  0  0  0  0  0  0  0  0
    3.7320    0.5000    0.0000 C   0  0  0  0  0  0  0  0  0  0  0  0
    1.3894   -0.3923    0.0000 H   0  0  0  0  0  0  0  0  0  0  0  0
    1.7880   -1.0826    0.0000 H   0  0  0  0  0  0  0  0  0  0  0  0
    3.9441   -1.0826    0.0000 H   0  0  0  0  0  0  0  0  0  0  0  0
    4.3426   -0.3923    0.0000 H   0  0  0  0  0  0  0  0  0  0  0  0
    1.7880    1.0826    0.0000 H   0  0  0  0  0  0  0  0  0  0  0  0
    1.3894    0.3923    0.0000 H   0  0  0  0  0  0  0  0  0  0  0  0
    4.3426    0.3923    0.0000 H   0  0  0  0  0  0  0  0  0  0  0  0
    3.9441    1.0826    0.0000 H   0  0  0  0  0  0  0  0  0  0  0  0
    2.8660   -1.6200    0.0000 H   0  0  0  0  0  0  0  0  0  0  0  0
    2.8660    1.6200    0.0000 H   0  0  0  0  0  0  0  0  0  0  0  0
  1  3  1  0  0  0  0 
  1  4  1  0  0  0  0 
  1 15  1  0  0  0  0 
  2  5  1  0  0  0  0 
  2  6  1  0  0  0  0 
  2 16  1  0  0  0  0 
  3  5  1  0  0  0  0 
  3  7  1  0  0  0  0 
  3  8  1  0  0  0  0 
  4  6  1  0  0  0  0 
  4  9  1  0  0  0  0 
  4 10  1  0  0  0  0 
  5 11  1  0  0  0  0 
  5 12  1  0  0  0  0 
  6 13  1  0  0  0  0 
  6 14  1  0  0  0  0 
M  END
> <cdk:Title>
4837

> <cdk:Remark>
null

> <PUBCHEM_COMPOUND_CID>
4837

> <PUBCHEM_COMPOUND_CANONICALIZED>
1

> <PUBCHEM_CACTVS_COMPLEXITY>
26.5

> <PUBCHEM_CACTVS_HBOND_ACCEPTOR>
2

> <PUBCHEM_CACTVS_HBOND_DONOR>
2

> <PUBCHEM_CACTVS_ROTATABLE_BOND>
0

> <PUBCHEM_CACTVS_SUBSKEYS>
AAADccBjAAAAAAAAAAAAAAAAAAAAAAAAAAAsAAAAAAAAAAAAAAAAHAAQAAAAAADBAAQAAALAAAAAAAAAAAAAAAAAAAAAAIAIAAAAQAAAAAAQAAAAEACAAAAAAAAAAAAAAAAAAAAAAAAAAAAAAAAAAAAAAA==

> <PUBCHEM_IUPAC_OPENEYE_NAME>
piperazine

> <PUBCHEM_IUPAC_CAS_NAME>
piperazine

> <PUBCHEM_IUPAC_NAME>
piperazine

> <PUBCHEM_IUPAC_SYSTEMATIC_NAME>
piperazine

> <PUBCHEM_IUPAC_TRADITIONAL_NAME>
piperazine

> <PUBCHEM_IUPAC_INCHI>
InChI=1S/C4H10N2/c1-2-6-4-3-5-1/h5-6H,1-4H2

> <PUBCHEM_IUPAC_INCHIKEY>
GLUUGHFHXGJENI-UHFFFAOYSA-N

> <PUBCHEM_XLOGP3>
-1.5

> <PUBCHEM_EXACT_MASS>
86.084398

> <PUBCHEM_MOLECULAR_FORMULA>
C4H10N2

> <PUBCHEM_MOLECULAR_WEIGHT>
86.1356

> <PUBCHEM_OPENEYE_CAN_SMILES>
C1CNCCN1

> <PUBCHEM_OPENEYE_ISO_SMILES>
C1CNCCN1

> <PUBCHEM_CACTVS_TPSA>
24.1

> <PUBCHEM_MONOISOTOPIC_WEIGHT>
86.084398

> <PUBCHEM_TOTAL_CHARGE>
0

> <PUBCHEM_HEAVY_ATOM_COUNT>
6

> <PUBCHEM_ATOM_DEF_STEREO_COUNT>
0

> <PUBCHEM_ATOM_UDEF_STEREO_COUNT>
0

> <PUBCHEM_BOND_DEF_STEREO_COUNT>
0

> <PUBCHEM_BOND_UDEF_STEREO_COUNT>
0

> <PUBCHEM_ISOTOPIC_ATOM_COUNT>
0

> <PUBCHEM_COMPONENT_COUNT>
1

> <PUBCHEM_CACTVS_TAUTO_COUNT>
1

> <PUBCHEM_COORDINATE_TYPE>
1
5
255

> <DRUG_ID>
w41

> <DRUG_NAME>
Piperazine

$$$$
5405
  CDK     0927151942
null
 76 79  0  0  0  0  0  0  0  0999 V2000
    4.1350    4.0000    0.0000 O   0  0  0  0  0  0  0  0  0  0  0  0
    2.5369   -1.5000    0.0000 O   0  0  0  0  0  0  0  0  0  0  0  0
    5.1350    1.0000    0.0000 N   0  0  0  0  0  0  0  0  0  0  0  0
    5.1350    3.0000    0.0000 C   0  0  0  0  0  0  0  0  0  0  0  0
    6.0010    2.5000    0.0000 C   0  0  0  0  0  0  0  0  0  0  0  0
    4.2690    2.5000    0.0000 C   0  0  0  0  0  0  0  0  0  0  0  0
    5.1350    4.0000    0.0000 C   0  0  0  0  0  0  0  0  0  0  0  0
    6.0010    1.5000    0.0000 C   0  0  0  0  0  0  0  0  0  0  0  0
    4.2690    1.5000    0.0000 C   0  0  0  0  0  0  0  0  0  0  0  0
    5.1350    0.0000    0.0000 C   0  0  0  0  0  0  0  0  0  0  0  0
    5.1350    5.0000    0.0000 C   0  0  0  0  0  0  0  0  0  0  0  0
    6.1350    4.0000    0.0000 C   0  0  0  0  0  0  0  0  0  0  0  0
    4.2690   -0.5000    0.0000 C   0  0  0  0  0  0  0  0  0  0  0  0
    4.2690   -1.5000    0.0000 C   0  0  0  0  0  0  0  0  0  0  0  0
    6.0010    5.5000    0.0000 C   0  0  0  0  0  0  0  0  0  0  0  0
    6.6350    3.1340    0.0000 C   0  0  0  0  0  0  0  0  0  0  0  0
    4.2690    5.5000    0.0000 C   0  0  0  0  0  0  0  0  0  0  0  0
    6.6350    4.8660    0.0000 C   0  0  0  0  0  0  0  0  0  0  0  0
    3.4030   -2.0000    0.0000 C   0  0  3  0  0  0  0  0  0  0  0  0
    6.0010    6.5000    0.0000 C   0  0  0  0  0  0  0  0  0  0  0  0
    7.6350    3.1340    0.0000 C   0  0  0  0  0  0  0  0  0  0  0  0
    4.2690    6.5000    0.0000 C   0  0  0  0  0  0  0  0  0  0  0  0
    7.6350    4.8660    0.0000 C   0  0  0  0  0  0  0  0  0  0  0  0
    3.4030   -3.0000    0.0000 C   0  0  0  0  0  0  0  0  0  0  0  0
    5.1350    7.0000    0.0000 C   0  0  0  0  0  0  0  0  0  0  0  0
    8.1350    4.0000    0.0000 C   0  0  0  0  0  0  0  0  0  0  0  0
    3.4030   -6.0000    0.0000 C   0  0  0  0  0  0  0  0  0  0  0  0
    3.4030   -5.0000    0.0000 C   0  0  0  0  0  0  0  0  0  0  0  0
    2.5369   -3.5000    0.0000 C   0  0  0  0  0  0  0  0  0  0  0  0
    4.2690   -3.5000    0.0000 C   0  0  0  0  0  0  0  0  0  0  0  0
    2.5369   -4.5000    0.0000 C   0  0  0  0  0  0  0  0  0  0  0  0
    4.2690   -4.5000    0.0000 C   0  0  0  0  0  0  0  0  0  0  0  0
    3.4030   -7.0000    0.0000 C   0  0  0  0  0  0  0  0  0  0  0  0
    2.4030   -6.0000    0.0000 C   0  0  0  0  0  0  0  0  0  0  0  0
    4.4030   -6.0000    0.0000 C   0  0  0  0  0  0  0  0  0  0  0  0
    5.6720    3.3100    0.0000 H   0  0  0  0  0  0  0  0  0  0  0  0
    6.6116    2.3923    0.0000 H   0  0  0  0  0  0  0  0  0  0  0  0
    6.2131    3.0826    0.0000 H   0  0  0  0  0  0  0  0  0  0  0  0
    4.0569    3.0826    0.0000 H   0  0  0  0  0  0  0  0  0  0  0  0
    3.6584    2.3923    0.0000 H   0  0  0  0  0  0  0  0  0  0  0  0
    6.2131    0.9174    0.0000 H   0  0  0  0  0  0  0  0  0  0  0  0
    6.6116    1.6077    0.0000 H   0  0  0  0  0  0  0  0  0  0  0  0
    3.6584    1.6077    0.0000 H   0  0  0  0  0  0  0  0  0  0  0  0
    4.0569    0.9174    0.0000 H   0  0  0  0  0  0  0  0  0  0  0  0
    5.3471   -0.5826    0.0000 H   0  0  0  0  0  0  0  0  0  0  0  0
    5.7456    0.1077    0.0000 H   0  0  0  0  0  0  0  0  0  0  0  0
    4.0569    0.0826    0.0000 H   0  0  0  0  0  0  0  0  0  0  0  0
    3.6584   -0.6077    0.0000 H   0  0  0  0  0  0  0  0  0  0  0  0
    3.8250    4.5369    0.0000 H   0  0  0  0  0  0  0  0  0  0  0  0
    4.4810   -2.0826    0.0000 H   0  0  0  0  0  0  0  0  0  0  0  0
    4.8796   -1.3923    0.0000 H   0  0  0  0  0  0  0  0  0  0  0  0
    6.5380    5.1900    0.0000 H   0  0  0  0  0  0  0  0  0  0  0  0
    6.3250    2.5970    0.0000 H   0  0  0  0  0  0  0  0  0  0  0  0
    3.7320    5.1900    0.0000 H   0  0  0  0  0  0  0  0  0  0  0  0
    6.3250    5.4030    0.0000 H   0  0  0  0  0  0  0  0  0  0  0  0
    3.4030   -1.3800    0.0000 H   0  0  0  0  0  0  0  0  0  0  0  0
    6.5380    6.8100    0.0000 H   0  0  0  0  0  0  0  0  0  0  0  0
    7.9450    2.5970    0.0000 H   0  0  0  0  0  0  0  0  0  0  0  0
    3.7320    6.8100    0.0000 H   0  0  0  0  0  0  0  0  0  0  0  0
    7.9450    5.4030    0.0000 H   0  0  0  0  0  0  0  0  0  0  0  0
    8.7550    4.0000    0.0000 H   0  0  0  0  0  0  0  0  0  0  0  0
    5.1350    7.6200    0.0000 H   0  0  0  0  0  0  0  0  0  0  0  0
    2.0000   -3.1900    0.0000 H   0  0  0  0  0  0  0  0  0  0  0  0
    4.8059   -3.1900    0.0000 H   0  0  0  0  0  0  0  0  0  0  0  0
    2.0000   -1.8100    0.0000 H   0  0  0  0  0  0  0  0  0  0  0  0
    2.0000   -4.8100    0.0000 H   0  0  0  0  0  0  0  0  0  0  0  0
    4.8059   -4.8100    0.0000 H   0  0  0  0  0  0  0  0  0  0  0  0
    4.4030   -6.6200    0.0000 H   0  0  0  0  0  0  0  0  0  0  0  0
    5.0230   -6.0000    0.0000 H   0  0  0  0  0  0  0  0  0  0  0  0
    4.4030   -5.3800    0.0000 H   0  0  0  0  0  0  0  0  0  0  0  0
    2.4030   -5.3800    0.0000 H   0  0  0  0  0  0  0  0  0  0  0  0
    1.7830   -6.0000    0.0000 H   0  0  0  0  0  0  0  0  0  0  0  0
    2.4030   -6.6200    0.0000 H   0  0  0  0  0  0  0  0  0  0  0  0
    2.7830   -7.0000    0.0000 H   0  0  0  0  0  0  0  0  0  0  0  0
    3.4030   -7.6200    0.0000 H   0  0  0  0  0  0  0  0  0  0  0  0
    4.0230   -7.0000    0.0000 H   0  0  0  0  0  0  0  0  0  0  0  0
  1  7  1  0  0  0  0 
  1 49  1  0  0  0  0 
  2 19  1  0  0  0  0 
  2 65  1  0  0  0  0 
  3  8  1  0  0  0  0 
  3  9  1  0  0  0  0 
  3 10  1  0  0  0  0 
  4  5  1  0  0  0  0 
  4  6  1  0  0  0  0 
  4  7  1  0  0  0  0 
  4 36  1  0  0  0  0 
  5  8  1  0  0  0  0 
  5 37  1  0  0  0  0 
  5 38  1  0  0  0  0 
  6  9  1  0  0  0  0 
  6 39  1  0  0  0  0 
  6 40  1  0  0  0  0 
  7 11  1  0  0  0  0 
  7 12  1  0  0  0  0 
  8 41  1  0  0  0  0 
  8 42  1  0  0  0  0 
  9 43  1  0  0  0  0 
  9 44  1  0  0  0  0 
 10 13  1  0  0  0  0 
 10 45  1  0  0  0  0 
 10 46  1  0  0  0  0 
 11 15  2  0  0  0  0 
 11 17  1  0  0  0  0 
 12 16  2  0  0  0  0 
 12 18  1  0  0  0  0 
 13 14  1  0  0  0  0 
 13 47  1  0  0  0  0 
 13 48  1  0  0  0  0 
 14 19  1  0  0  0  0 
 14 50  1  0  0  0  0 
 14 51  1  0  0  0  0 
 15 20  1  0  0  0  0 
 15 52  1  0  0  0  0 
 16 21  1  0  0  0  0 
 16 53  1  0  0  0  0 
 17 22  2  0  0  0  0 
 17 54  1  0  0  0  0 
 18 23  2  0  0  0  0 
 18 55  1  0  0  0  0 
 19 24  1  0  0  0  0 
 19 56  1  0  0  0  0 
 20 25  2  0  0  0  0 
 20 57  1  0  0  0  0 
 21 26  2  0  0  0  0 
 21 58  1  0  0  0  0 
 22 25  1  0  0  0  0 
 22 59  1  0  0  0  0 
 23 26  1  0  0  0  0 
 23 60  1  0  0  0  0 
 24 29  2  0  0  0  0 
 24 30  1  0  0  0  0 
 25 62  1  0  0  0  0 
 26 61  1  0  0  0  0 
 27 28  1  0  0  0  0 
 27 33  1  0  0  0  0 
 27 34  1  0  0  0  0 
 27 35  1  0  0  0  0 
 28 31  2  0  0  0  0 
 28 32  1  0  0  0  0 
 29 31  1  0  0  0  0 
 29 63  1  0  0  0  0 
 30 32  2  0  0  0  0 
 30 64  1  0  0  0  0 
 31 66  1  0  0  0  0 
 32 67  1  0  0  0  0 
 33 74  1  0  0  0  0 
 33 75  1  0  0  0  0 
 33 76  1  0  0  0  0 
 34 71  1  0  0  0  0 
 34 72  1  0  0  0  0 
 34 73  1  0  0  0  0 
 35 68  1  0  0  0  0 
 35 69  1  0  0  0  0 
 35 70  1  0  0  0  0 
M  END
> <cdk:Title>
5405

> <cdk:Remark>
null

> <PUBCHEM_COMPOUND_CID>
5405

> <PUBCHEM_COMPOUND_CANONICALIZED>
1

> <PUBCHEM_CACTVS_COMPLEXITY>
582

> <PUBCHEM_CACTVS_HBOND_ACCEPTOR>
3

> <PUBCHEM_CACTVS_HBOND_DONOR>
2

> <PUBCHEM_CACTVS_ROTATABLE_BOND>
9

> <PUBCHEM_CACTVS_SUBSKEYS>
AAADcfB+MAAAAAAAAAAAAAAAAAAAAAAAAAA8YMEAAAAAAAABUAAAHgAACAAAD1ThmAYyAIMAAgCAAiBCAAACAAAgAAAIiAAICIgINiKAkRCEcAAkwAGImAewwPAPwAAAAAAAAACAAAAAAAAAAAAAAAAAAA==

> <PUBCHEM_IUPAC_OPENEYE_NAME>
1-(4-tert-butylphenyl)-4-[4-[hydroxy(diphenyl)methyl]-1-piperidyl]butan-1-ol

> <PUBCHEM_IUPAC_CAS_NAME>
1-(4-tert-butylphenyl)-4-[4-[hydroxy(diphenyl)methyl]-1-piperidinyl]-1-butanol

> <PUBCHEM_IUPAC_NAME>
1-(4-tert-butylphenyl)-4-[4-[hydroxy(diphenyl)methyl]piperidin-1-yl]butan-1-ol

> <PUBCHEM_IUPAC_SYSTEMATIC_NAME>
1-(4-tert-butylphenyl)-4-[4-[oxidanyl(diphenyl)methyl]piperidin-1-yl]butan-1-ol

> <PUBCHEM_IUPAC_TRADITIONAL_NAME>
1-(4-tert-butylphenyl)-4-[4-[hydroxy(diphenyl)methyl]piperidino]butan-1-ol

> <PUBCHEM_IUPAC_INCHI>
InChI=1S/C32H41NO2/c1-31(2,3)26-18-16-25(17-19-26)30(34)15-10-22-33-23-20-29(21-24-33)32(35,27-11-6-4-7-12-27)28-13-8-5-9-14-28/h4-9,11-14,16-19,29-30,34-35H,10,15,20-24H2,1-3H3

> <PUBCHEM_IUPAC_INCHIKEY>
GUGOEEXESWIERI-UHFFFAOYSA-N

> <PUBCHEM_XLOGP3_AA>
6.6

> <PUBCHEM_EXACT_MASS>
471.31373

> <PUBCHEM_MOLECULAR_FORMULA>
C32H41NO2

> <PUBCHEM_MOLECULAR_WEIGHT>
471.67344

> <PUBCHEM_OPENEYE_CAN_SMILES>
CC(C)(C)C1=CC=C(C=C1)C(CCCN2CCC(CC2)C(C3=CC=CC=C3)(C4=CC=CC=C4)O)O

> <PUBCHEM_OPENEYE_ISO_SMILES>
CC(C)(C)C1=CC=C(C=C1)C(CCCN2CCC(CC2)C(C3=CC=CC=C3)(C4=CC=CC=C4)O)O

> <PUBCHEM_CACTVS_TPSA>
43.7

> <PUBCHEM_MONOISOTOPIC_WEIGHT>
471.31373

> <PUBCHEM_TOTAL_CHARGE>
0

> <PUBCHEM_HEAVY_ATOM_COUNT>
35

> <PUBCHEM_ATOM_DEF_STEREO_COUNT>
0

> <PUBCHEM_ATOM_UDEF_STEREO_COUNT>
1

> <PUBCHEM_BOND_DEF_STEREO_COUNT>
0

> <PUBCHEM_BOND_UDEF_STEREO_COUNT>
0

> <PUBCHEM_ISOTOPIC_ATOM_COUNT>
0

> <PUBCHEM_COMPONENT_COUNT>
1

> <PUBCHEM_CACTVS_TAUTO_COUNT>
1

> <PUBCHEM_COORDINATE_TYPE>
1
5
255

> <PUBCHEM_BONDANNOTATIONS>
11  15  8
11  17  8
12  16  8
12  18  8
15  20  8
16  21  8
17  22  8
18  23  8
19  2  3
20  25  8
21  26  8
22  25  8
23  26  8
24  29  8
24  30  8
28  31  8
28  32  8
29  31  8
30  32  8

> <DRUG_ID>
w42

> <DRUG_NAME>
Terfenadine

$$$$
54477
  CDK     0927151942
null
 45 46  0  0  0  0  0  0  0  0999 V2000
    2.8660   -3.8209    0.0000 Br  0  0  0  0  0  0  0  0  0  0  0  0
    3.7320   -0.3209    0.0000 O   0  0  0  0  0  0  0  0  0  0  0  0
    2.8660   -1.8209    0.0000 O   0  0  0  0  0  0  0  0  0  0  0  0
    6.3301   -1.8209    0.0000 O   0  0  0  0  0  0  0  0  0  0  0  0
    6.4347    2.1736    0.0000 N   0  0  3  0  0  0  0  0  0  0  0  0
    5.4641   -0.3209    0.0000 N   0  0  0  0  0  0  0  0  0  0  0  0
    6.3301    1.1791    0.0000 C   0  0  1  0  0  0  0  0  0  0  0  0
    7.2437    0.7724    0.0000 C   0  0  0  0  0  0  0  0  0  0  0  0
    7.9128    1.5155    0.0000 C   0  0  0  0  0  0  0  0  0  0  0  0
    7.4128    2.3815    0.0000 C   0  0  0  0  0  0  0  0  0  0  0  0
    5.4641    0.6791    0.0000 C   0  0  0  0  0  0  0  0  0  0  0  0
    5.6915    2.8428    0.0000 C   0  0  0  0  0  0  0  0  0  0  0  0
    5.8994    3.8209    0.0000 C   0  0  0  0  0  0  0  0  0  0  0  0
    4.5981   -0.8209    0.0000 C   0  0  0  0  0  0  0  0  0  0  0  0
    4.5981   -1.8209    0.0000 C   0  0  0  0  0  0  0  0  0  0  0  0
    3.7320   -2.3209    0.0000 C   0  0  0  0  0  0  0  0  0  0  0  0
    5.4641   -2.3209    0.0000 C   0  0  0  0  0  0  0  0  0  0  0  0
    3.7320   -3.3209    0.0000 C   0  0  0  0  0  0  0  0  0  0  0  0
    5.4641   -3.3209    0.0000 C   0  0  0  0  0  0  0  0  0  0  0  0
    4.5981   -3.8209    0.0000 C   0  0  0  0  0  0  0  0  0  0  0  0
    2.0000   -2.3209    0.0000 C   0  0  0  0  0  0  0  0  0  0  0  0
    7.1962   -2.3209    0.0000 C   0  0  0  0  0  0  0  0  0  0  0  0
    5.8102    1.5168    0.0000 H   0  0  0  0  0  0  0  0  0  0  0  0
    6.9337    0.2354    0.0000 H   0  0  0  0  0  0  0  0  0  0  0  0
    7.7453    0.4079    0.0000 H   0  0  0  0  0  0  0  0  0  0  0  0
    8.3277    1.0548    0.0000 H   0  0  0  0  0  0  0  0  0  0  0  0
    8.4144    1.8799    0.0000 H   0  0  0  0  0  0  0  0  0  0  0  0
    7.9792    2.6337    0.0000 H   0  0  0  0  0  0  0  0  0  0  0  0
    7.2212    2.9712    0.0000 H   0  0  0  0  0  0  0  0  0  0  0  0
    5.2520    1.2617    0.0000 H   0  0  0  0  0  0  0  0  0  0  0  0
    4.8535    0.5714    0.0000 H   0  0  0  0  0  0  0  0  0  0  0  0
    5.1167    3.0750    0.0000 H   0  0  0  0  0  0  0  0  0  0  0  0
    5.3630    2.3170    0.0000 H   0  0  0  0  0  0  0  0  0  0  0  0
    6.0010   -0.6309    0.0000 H   0  0  0  0  0  0  0  0  0  0  0  0
    6.5059    3.6920    0.0000 H   0  0  0  0  0  0  0  0  0  0  0  0
    6.0283    4.4274    0.0000 H   0  0  0  0  0  0  0  0  0  0  0  0
    5.2930    3.9498    0.0000 H   0  0  0  0  0  0  0  0  0  0  0  0
    6.0010   -3.6309    0.0000 H   0  0  0  0  0  0  0  0  0  0  0  0
    4.5981   -4.4409    0.0000 H   0  0  0  0  0  0  0  0  0  0  0  0
    1.6900   -1.7840    0.0000 H   0  0  0  0  0  0  0  0  0  0  0  0
    1.4631   -2.6309    0.0000 H   0  0  0  0  0  0  0  0  0  0  0  0
    2.3100   -2.8578    0.0000 H   0  0  0  0  0  0  0  0  0  0  0  0
    6.8862   -2.8578    0.0000 H   0  0  0  0  0  0  0  0  0  0  0  0
    7.7331   -2.6309    0.0000 H   0  0  0  0  0  0  0  0  0  0  0  0
    7.5062   -1.7840    0.0000 H   0  0  0  0  0  0  0  0  0  0  0  0
  1 18  1  0  0  0  0 
  2 14  2  0  0  0  0 
  3 16  1  0  0  0  0 
  3 21  1  0  0  0  0 
  4 17  1  0  0  0  0 
  4 22  1  0  0  0  0 
  5  7  1  0  0  0  0 
  5 10  1  0  0  0  0 
  5 12  1  0  0  0  0 
  6 11  1  0  0  0  0 
  6 14  1  0  0  0  0 
  6 34  1  0  0  0  0 
  7  8  1  0  0  0  0 
  7 11  1  1  0  0  0 
  7 23  1  0  0  0  0 
  8  9  1  0  0  0  0 
  8 24  1  0  0  0  0 
  8 25  1  0  0  0  0 
  9 10  1  0  0  0  0 
  9 26  1  0  0  0  0 
  9 27  1  0  0  0  0 
 10 28  1  0  0  0  0 
 10 29  1  0  0  0  0 
 11 30  1  0  0  0  0 
 11 31  1  0  0  0  0 
 12 13  1  0  0  0  0 
 12 32  1  0  0  0  0 
 12 33  1  0  0  0  0 
 13 35  1  0  0  0  0 
 13 36  1  0  0  0  0 
 13 37  1  0  0  0  0 
 14 15  1  0  0  0  0 
 15 16  1  0  0  0  0 
 15 17  2  0  0  0  0 
 16 18  2  0  0  0  0 
 17 19  1  0  0  0  0 
 18 20  1  0  0  0  0 
 19 20  2  0  0  0  0 
 19 38  1  0  0  0  0 
 20 39  1  0  0  0  0 
 21 40  1  0  0  0  0 
 21 41  1  0  0  0  0 
 21 42  1  0  0  0  0 
 22 43  1  0  0  0  0 
 22 44  1  0  0  0  0 
 22 45  1  0  0  0  0 
M  END
> <cdk:Title>
54477

> <cdk:Remark>
null

> <PUBCHEM_COMPOUND_CID>
54477

> <PUBCHEM_COMPOUND_CANONICALIZED>
1

> <PUBCHEM_CACTVS_COMPLEXITY>
369

> <PUBCHEM_CACTVS_HBOND_ACCEPTOR>
4

> <PUBCHEM_CACTVS_HBOND_DONOR>
1

> <PUBCHEM_CACTVS_ROTATABLE_BOND>
6

> <PUBCHEM_CACTVS_SUBSKEYS>
AAADceB7MAAAEAAAAAAAAAAAAAAAAWAAAAAwAAAAAAAAAAABAAAAHgBQAAABrCzBmAYyBoPABACIAiFSEACCCAAkIAQIiIEODOgMZzaEtBuUMWhn9hWIqxeY6CyOABAAGAAIBAAAIAAwABAIAAAAAAAAAA==

> <PUBCHEM_IUPAC_OPENEYE_NAME>
3-bromo-N-[[(2S)-1-ethylpyrrolidin-2-yl]methyl]-2,6-dimethoxy-benzamide

> <PUBCHEM_IUPAC_CAS_NAME>
3-bromo-N-[[(2S)-1-ethyl-2-pyrrolidinyl]methyl]-2,6-dimethoxybenzamide

> <PUBCHEM_IUPAC_NAME>
3-bromo-N-[[(2S)-1-ethylpyrrolidin-2-yl]methyl]-2,6-dimethoxybenzamide

> <PUBCHEM_IUPAC_SYSTEMATIC_NAME>
3-bromanyl-N-[[(2S)-1-ethylpyrrolidin-2-yl]methyl]-2,6-dimethoxy-benzamide

> <PUBCHEM_IUPAC_TRADITIONAL_NAME>
3-bromo-N-[[(2S)-1-ethylpyrrolidin-2-yl]methyl]-2,6-dimethoxy-benzamide

> <PUBCHEM_IUPAC_INCHI>
InChI=1S/C16H23BrN2O3/c1-4-19-9-5-6-11(19)10-18-16(20)14-13(21-2)8-7-12(17)15(14)22-3/h7-8,11H,4-6,9-10H2,1-3H3,(H,18,20)/t11-/m0/s1

> <PUBCHEM_IUPAC_INCHIKEY>
GUJRSXAPGDDABA-NSHDSACASA-N

> <PUBCHEM_XLOGP3>
2.1

> <PUBCHEM_EXACT_MASS>
370.089205

> <PUBCHEM_MOLECULAR_FORMULA>
C16H23BrN2O3

> <PUBCHEM_MOLECULAR_WEIGHT>
371.26942

> <PUBCHEM_OPENEYE_CAN_SMILES>
CCN1CCCC1CNC(=O)C2=C(C=CC(=C2OC)Br)OC

> <PUBCHEM_OPENEYE_ISO_SMILES>
CCN1CCC[C@H]1CNC(=O)C2=C(C=CC(=C2OC)Br)OC

> <PUBCHEM_CACTVS_TPSA>
50.8

> <PUBCHEM_MONOISOTOPIC_WEIGHT>
370.089205

> <PUBCHEM_TOTAL_CHARGE>
0

> <PUBCHEM_HEAVY_ATOM_COUNT>
22

> <PUBCHEM_ATOM_DEF_STEREO_COUNT>
1

> <PUBCHEM_ATOM_UDEF_STEREO_COUNT>
0

> <PUBCHEM_BOND_DEF_STEREO_COUNT>
0

> <PUBCHEM_BOND_UDEF_STEREO_COUNT>
0

> <PUBCHEM_ISOTOPIC_ATOM_COUNT>
0

> <PUBCHEM_COMPONENT_COUNT>
1

> <PUBCHEM_CACTVS_TAUTO_COUNT>
2

> <PUBCHEM_COORDINATE_TYPE>
1
5
255

> <PUBCHEM_BONDANNOTATIONS>
15  16  8
15  17  8
16  18  8
17  19  8
18  20  8
19  20  8
7  11  5

> <DRUG_ID>
w43

> <DRUG_NAME>
Remoxipride

$$$$
2898
  CDK     0927151942
null
 51 53  0  0  0  0  0  0  0  0999 V2000
    8.0622    3.0000    0.0000 O   0  0  0  0  0  0  0  0  0  0  0  0
    4.5981   -3.0000    0.0000 O   0  0  0  0  0  0  0  0  0  0  0  0
    7.1962    4.5000    0.0000 O   0  0  0  0  0  0  0  0  0  0  0  0
    2.8660   -3.0000    0.0000 O   0  0  0  0  0  0  0  0  0  0  0  0
    2.0000    2.5000    0.0000 C   0  0  0  0  0  0  0  0  0  0  0  0
    2.8660    3.0000    0.0000 C   0  0  0  0  0  0  0  0  0  0  0  0
    2.0000    1.5000    0.0000 C   0  0  0  0  0  0  0  0  0  0  0  0
    3.7320    2.5000    0.0000 C   0  0  0  0  0  0  0  0  0  0  0  0
    2.8660    1.0000    0.0000 C   0  0  0  0  0  0  0  0  0  0  0  0
    3.7320    1.5000    0.0000 C   0  0  0  0  0  0  0  0  0  0  0  0
    4.5981    1.0000    0.0000 C   0  0  0  0  0  0  0  0  0  0  0  0
    4.5981    0.0000    0.0000 C   0  0  0  0  0  0  0  0  0  0  0  0
    5.4641    1.5000    0.0000 C   0  0  0  0  0  0  0  0  0  0  0  0
    3.7320   -0.5000    0.0000 C   0  0  0  0  0  0  0  0  0  0  0  0
    6.3301    1.0000    0.0000 C   0  0  0  0  0  0  0  0  0  0  0  0
    5.4641   -0.5000    0.0000 C   0  0  0  0  0  0  0  0  0  0  0  0
    5.4641    2.5000    0.0000 C   0  0  0  0  0  0  0  0  0  0  0  0
    7.1962    1.5000    0.0000 C   0  0  0  0  0  0  0  0  0  0  0  0
    3.7320   -1.5000    0.0000 C   0  0  0  0  0  0  0  0  0  0  0  0
    6.3301    3.0000    0.0000 C   0  0  0  0  0  0  0  0  0  0  0  0
    5.4641   -1.5000    0.0000 C   0  0  0  0  0  0  0  0  0  0  0  0
    4.5981   -2.0000    0.0000 C   0  0  0  0  0  0  0  0  0  0  0  0
    7.1962    2.5000    0.0000 C   0  0  0  0  0  0  0  0  0  0  0  0
    3.7320   -3.5000    0.0000 C   0  0  0  0  0  0  0  0  0  0  0  0
    8.0622    4.0000    0.0000 C   0  0  0  0  0  0  0  0  0  0  0  0
    3.7320   -4.5000    0.0000 C   0  0  0  0  0  0  0  0  0  0  0  0
    8.9282    4.5000    0.0000 C   0  0  0  0  0  0  0  0  0  0  0  0
    1.7880    3.0826    0.0000 H   0  0  0  0  0  0  0  0  0  0  0  0
    1.3894    2.3923    0.0000 H   0  0  0  0  0  0  0  0  0  0  0  0
    3.2646    3.4750    0.0000 H   0  0  0  0  0  0  0  0  0  0  0  0
    2.4675    3.4750    0.0000 H   0  0  0  0  0  0  0  0  0  0  0  0
    1.3894    1.6077    0.0000 H   0  0  0  0  0  0  0  0  0  0  0  0
    1.7880    0.9174    0.0000 H   0  0  0  0  0  0  0  0  0  0  0  0
    4.3426    2.3923    0.0000 H   0  0  0  0  0  0  0  0  0  0  0  0
    3.9441    3.0826    0.0000 H   0  0  0  0  0  0  0  0  0  0  0  0
    2.4675    0.5251    0.0000 H   0  0  0  0  0  0  0  0  0  0  0  0
    3.2646    0.5251    0.0000 H   0  0  0  0  0  0  0  0  0  0  0  0
    6.3301    0.3800    0.0000 H   0  0  0  0  0  0  0  0  0  0  0  0
    3.1951   -0.1900    0.0000 H   0  0  0  0  0  0  0  0  0  0  0  0
    4.9272    2.8100    0.0000 H   0  0  0  0  0  0  0  0  0  0  0  0
    6.0010   -0.1900    0.0000 H   0  0  0  0  0  0  0  0  0  0  0  0
    7.7331    1.1900    0.0000 H   0  0  0  0  0  0  0  0  0  0  0  0
    3.1951   -1.8100    0.0000 H   0  0  0  0  0  0  0  0  0  0  0  0
    6.3301    3.6200    0.0000 H   0  0  0  0  0  0  0  0  0  0  0  0
    6.0010   -1.8100    0.0000 H   0  0  0  0  0  0  0  0  0  0  0  0
    9.2382    3.9631    0.0000 H   0  0  0  0  0  0  0  0  0  0  0  0
    9.4651    4.8100    0.0000 H   0  0  0  0  0  0  0  0  0  0  0  0
    8.6182    5.0369    0.0000 H   0  0  0  0  0  0  0  0  0  0  0  0
    3.1120   -4.5000    0.0000 H   0  0  0  0  0  0  0  0  0  0  0  0
    3.7320   -5.1200    0.0000 H   0  0  0  0  0  0  0  0  0  0  0  0
    4.3520   -4.5000    0.0000 H   0  0  0  0  0  0  0  0  0  0  0  0
  1 23  1  0  0  0  0 
  1 25  1  0  0  0  0 
  2 22  1  0  0  0  0 
  2 24  1  0  0  0  0 
  3 25  2  0  0  0  0 
  4 24  2  0  0  0  0 
  5  6  1  0  0  0  0 
  5  7  1  0  0  0  0 
  5 28  1  0  0  0  0 
  5 29  1  0  0  0  0 
  6  8  1  0  0  0  0 
  6 30  1  0  0  0  0 
  6 31  1  0  0  0  0 
  7  9  1  0  0  0  0 
  7 32  1  0  0  0  0 
  7 33  1  0  0  0  0 
  8 10  1  0  0  0  0 
  8 34  1  0  0  0  0 
  8 35  1  0  0  0  0 
  9 10  1  0  0  0  0 
  9 36  1  0  0  0  0 
  9 37  1  0  0  0  0 
 10 11  2  0  0  0  0 
 11 12  1  0  0  0  0 
 11 13  1  0  0  0  0 
 12 14  2  0  0  0  0 
 12 16  1  0  0  0  0 
 13 15  2  0  0  0  0 
 13 17  1  0  0  0  0 
 14 19  1  0  0  0  0 
 14 39  1  0  0  0  0 
 15 18  1  0  0  0  0 
 15 38  1  0  0  0  0 
 16 21  2  0  0  0  0 
 16 41  1  0  0  0  0 
 17 20  2  0  0  0  0 
 17 40  1  0  0  0  0 
 18 23  2  0  0  0  0 
 18 42  1  0  0  0  0 
 19 22  2  0  0  0  0 
 19 43  1  0  0  0  0 
 20 23  1  0  0  0  0 
 20 44  1  0  0  0  0 
 21 22  1  0  0  0  0 
 21 45  1  0  0  0  0 
 24 26  1  0  0  0  0 
 25 27  1  0  0  0  0 
 26 49  1  0  0  0  0 
 26 50  1  0  0  0  0 
 26 51  1  0  0  0  0 
 27 46  1  0  0  0  0 
 27 47  1  0  0  0  0 
 27 48  1  0  0  0  0 
M  END
> <cdk:Title>
2898

> <cdk:Remark>
null

> <PUBCHEM_COMPOUND_CID>
2898

> <PUBCHEM_COMPOUND_CANONICALIZED>
1

> <PUBCHEM_CACTVS_COMPLEXITY>
503

> <PUBCHEM_CACTVS_HBOND_ACCEPTOR>
4

> <PUBCHEM_CACTVS_HBOND_DONOR>
0

> <PUBCHEM_CACTVS_ROTATABLE_BOND>
6

> <PUBCHEM_CACTVS_SUBSKEYS>
AAADceB4OAAAAAAAAAAAAAAAAAAAAAAAAAAwYMAAAAAAAAABQAAAGgAAAAAADASAmAAyDoAABACIAiDSCAACCAAgIAAIiAAGCIgMJiKEMRqCOiCkwBEIqAeAwOAOIAAAAAAAAABAAAAAAAAAAAAAAAAAAA==

> <PUBCHEM_IUPAC_OPENEYE_NAME>
[4-[(4-acetoxyphenyl)-cyclohexylidene-methyl]phenyl] acetate

> <PUBCHEM_IUPAC_CAS_NAME>
acetic acid [4-[(4-acetyloxyphenyl)-cyclohexylidenemethyl]phenyl] ester

> <PUBCHEM_IUPAC_NAME>
[4-[(4-acetyloxyphenyl)-cyclohexylidenemethyl]phenyl] acetate

> <PUBCHEM_IUPAC_SYSTEMATIC_NAME>
[4-[(4-acetyloxyphenyl)-cyclohexylidene-methyl]phenyl] ethanoate

> <PUBCHEM_IUPAC_TRADITIONAL_NAME>
acetic acid [4-[(4-acetoxyphenyl)-cyclohexylidene-methyl]phenyl] ester

> <PUBCHEM_IUPAC_INCHI>
InChI=1S/C23H24O4/c1-16(24)26-21-12-8-19(9-13-21)23(18-6-4-3-5-7-18)20-10-14-22(15-11-20)27-17(2)25/h8-15H,3-7H2,1-2H3

> <PUBCHEM_IUPAC_INCHIKEY>
GVOUFPWUYJWQSK-UHFFFAOYSA-N

> <PUBCHEM_XLOGP3_AA>
5.5

> <PUBCHEM_EXACT_MASS>
364.167459

> <PUBCHEM_MOLECULAR_FORMULA>
C23H24O4

> <PUBCHEM_MOLECULAR_WEIGHT>
364.43426

> <PUBCHEM_OPENEYE_CAN_SMILES>
CC(=O)OC1=CC=C(C=C1)C(=C2CCCCC2)C3=CC=C(C=C3)OC(=O)C

> <PUBCHEM_OPENEYE_ISO_SMILES>
CC(=O)OC1=CC=C(C=C1)C(=C2CCCCC2)C3=CC=C(C=C3)OC(=O)C

> <PUBCHEM_CACTVS_TPSA>
52.6

> <PUBCHEM_MONOISOTOPIC_WEIGHT>
364.167459

> <PUBCHEM_TOTAL_CHARGE>
0

> <PUBCHEM_HEAVY_ATOM_COUNT>
27

> <PUBCHEM_ATOM_DEF_STEREO_COUNT>
0

> <PUBCHEM_ATOM_UDEF_STEREO_COUNT>
0

> <PUBCHEM_BOND_DEF_STEREO_COUNT>
0

> <PUBCHEM_BOND_UDEF_STEREO_COUNT>
0

> <PUBCHEM_ISOTOPIC_ATOM_COUNT>
0

> <PUBCHEM_COMPONENT_COUNT>
1

> <PUBCHEM_CACTVS_TAUTO_COUNT>
1

> <PUBCHEM_COORDINATE_TYPE>
1
5
255

> <PUBCHEM_BONDANNOTATIONS>
12  14  8
12  16  8
13  15  8
13  17  8
14  19  8
15  18  8
16  21  8
17  20  8
18  23  8
19  22  8
20  23  8
21  22  8

> <DRUG_ID>
w44

> <DRUG_NAME>
Cyclofenil

$$$$
3474
  CDK     0927151942
null
 43 45  0  0  0  0  0  0  0  0999 V2000
    8.1282    4.6618    0.0000 Cl  0  0  0  0  0  0  0  0  0  0  0  0
    4.5981   -1.3623    0.0000 O   0  0  0  0  0  0  0  0  0  0  0  0
    4.5981   -3.3623    0.0000 O   0  0  0  0  0  0  0  0  0  0  0  0
    2.8660   -4.3623    0.0000 O   0  0  0  0  0  0  0  0  0  0  0  0
    5.4641    0.1377    0.0000 O   0  0  0  0  0  0  0  0  0  0  0  0
    4.5981    1.6377    0.0000 N   0  0  0  0  0  0  0  0  0  0  0  0
    4.5981    4.6377    0.0000 N   0  0  0  0  0  0  0  0  0  0  0  0
    4.5981    2.6377    0.0000 C   0  0  0  0  0  0  0  0  0  0  0  0
    5.4641    3.1377    0.0000 C   0  0  0  0  0  0  0  0  0  0  0  0
    3.7320    1.1377    0.0000 C   0  0  0  0  0  0  0  0  0  0  0  0
    3.7320    0.1377    0.0000 C   0  0  0  0  0  0  0  0  0  0  0  0
    5.4641    4.1377    0.0000 C   0  0  0  0  0  0  0  0  0  0  0  0
    3.7320   -2.8623    0.0000 C   0  0  3  0  0  0  0  0  0  0  0  0
    3.7320   -1.8623    0.0000 C   0  0  0  0  0  0  0  0  0  0  0  0
    3.7320    3.1377    0.0000 C   0  0  0  0  0  0  0  0  0  0  0  0
    6.3580    2.6030    0.0000 C   0  0  0  0  0  0  0  0  0  0  0  0
    2.8660    1.6377    0.0000 C   0  0  0  0  0  0  0  0  0  0  0  0
    4.5981   -0.3623    0.0000 C   0  0  0  0  0  0  0  0  0  0  0  0
    2.8660   -0.3623    0.0000 C   0  0  0  0  0  0  0  0  0  0  0  0
    6.3580    4.6723    0.0000 C   0  0  0  0  0  0  0  0  0  0  0  0
    2.8660   -3.3623    0.0000 C   0  0  0  0  0  0  0  0  0  0  0  0
    3.7320    4.1377    0.0000 C   0  0  0  0  0  0  0  0  0  0  0  0
    7.2641    3.1168    0.0000 C   0  0  0  0  0  0  0  0  0  0  0  0
    2.0000    1.1377    0.0000 C   0  0  0  0  0  0  0  0  0  0  0  0
    2.0000    0.1377    0.0000 C   0  0  0  0  0  0  0  0  0  0  0  0
    7.2641    4.1585    0.0000 C   0  0  0  0  0  0  0  0  0  0  0  0
    5.1350    1.3277    0.0000 H   0  0  0  0  0  0  0  0  0  0  0  0
    3.7320   -3.4823    0.0000 H   0  0  0  0  0  0  0  0  0  0  0  0
    3.5200   -1.2797    0.0000 H   0  0  0  0  0  0  0  0  0  0  0  0
    3.1215   -1.9700    0.0000 H   0  0  0  0  0  0  0  0  0  0  0  0
    3.1951    2.8277    0.0000 H   0  0  0  0  0  0  0  0  0  0  0  0
    6.3509    1.9830    0.0000 H   0  0  0  0  0  0  0  0  0  0  0  0
    2.8660    2.2577    0.0000 H   0  0  0  0  0  0  0  0  0  0  0  0
    2.8660   -0.9823    0.0000 H   0  0  0  0  0  0  0  0  0  0  0  0
    6.3509    5.2923    0.0000 H   0  0  0  0  0  0  0  0  0  0  0  0
    2.6540   -2.7797    0.0000 H   0  0  0  0  0  0  0  0  0  0  0  0
    2.2554   -3.4700    0.0000 H   0  0  0  0  0  0  0  0  0  0  0  0
    3.1951    4.4477    0.0000 H   0  0  0  0  0  0  0  0  0  0  0  0
    7.7998    2.8048    0.0000 H   0  0  0  0  0  0  0  0  0  0  0  0
    1.4631    1.4477    0.0000 H   0  0  0  0  0  0  0  0  0  0  0  0
    1.4631   -0.1723    0.0000 H   0  0  0  0  0  0  0  0  0  0  0  0
    4.5981   -3.9823    0.0000 H   0  0  0  0  0  0  0  0  0  0  0  0
    2.3291   -4.6723    0.0000 H   0  0  0  0  0  0  0  0  0  0  0  0
  1 26  1  0  0  0  0 
  2 14  1  0  0  0  0 
  2 18  1  0  0  0  0 
  3 13  1  0  0  0  0 
  3 42  1  0  0  0  0 
  4 21  1  0  0  0  0 
  4 43  1  0  0  0  0 
  5 18  2  0  0  0  0 
  6  8  1  0  0  0  0 
  6 10  1  0  0  0  0 
  6 27  1  0  0  0  0 
  7 12  2  0  0  0  0 
  7 22  1  0  0  0  0 
  8  9  2  0  0  0  0 
  8 15  1  0  0  0  0 
  9 12  1  0  0  0  0 
  9 16  1  0  0  0  0 
 10 11  1  0  0  0  0 
 10 17  2  0  0  0  0 
 11 18  1  0  0  0  0 
 11 19  2  0  0  0  0 
 12 20  1  0  0  0  0 
 13 14  1  0  0  0  0 
 13 21  1  0  0  0  0 
 13 28  1  0  0  0  0 
 14 29  1  0  0  0  0 
 14 30  1  0  0  0  0 
 15 22  2  0  0  0  0 
 15 31  1  0  0  0  0 
 16 23  2  0  0  0  0 
 16 32  1  0  0  0  0 
 17 24  1  0  0  0  0 
 17 33  1  0  0  0  0 
 19 25  1  0  0  0  0 
 19 34  1  0  0  0  0 
 20 26  2  0  0  0  0 
 20 35  1  0  0  0  0 
 21 36  1  0  0  0  0 
 21 37  1  0  0  0  0 
 22 38  1  0  0  0  0 
 23 26  1  0  0  0  0 
 23 39  1  0  0  0  0 
 24 25  2  0  0  0  0 
 24 40  1  0  0  0  0 
 25 41  1  0  0  0  0 
M  END
> <cdk:Title>
3474

> <cdk:Remark>
null

> <PUBCHEM_COMPOUND_CID>
3474

> <PUBCHEM_COMPOUND_CANONICALIZED>
1

> <PUBCHEM_CACTVS_COMPLEXITY>
467

> <PUBCHEM_CACTVS_HBOND_ACCEPTOR>
6

> <PUBCHEM_CACTVS_HBOND_DONOR>
3

> <PUBCHEM_CACTVS_ROTATABLE_BOND>
7

> <PUBCHEM_CACTVS_SUBSKEYS>
AAADceB7OAAEAAAAAAAAAAAAAAAAAAAAAAA8YIAAAAAAAACx9AAAHgIQCAAADB7hniY8yPLIFgCoAzT3TACCgCA1ByAI2CE4btgJNvrB99mGdYhn0AHL6ceYyKCOBAAAAAICAAAIAAAABAQAAAAAAAAAAA==

> <PUBCHEM_IUPAC_OPENEYE_NAME>
2,3-dihydroxypropyl 2-[(7-chloro-4-quinolyl)amino]benzoate

> <PUBCHEM_IUPAC_CAS_NAME>
2-[(7-chloro-4-quinolinyl)amino]benzoic acid 2,3-dihydroxypropyl ester

> <PUBCHEM_IUPAC_NAME>
2,3-dihydroxypropyl 2-[(7-chloroquinolin-4-yl)amino]benzoate

> <PUBCHEM_IUPAC_SYSTEMATIC_NAME>
2,3-bis(oxidanyl)propyl 2-[(7-chloranylquinolin-4-yl)amino]benzoate

> <PUBCHEM_IUPAC_TRADITIONAL_NAME>
2-[(7-chloro-4-quinolyl)amino]benzoic acid glyceryl ester

> <PUBCHEM_IUPAC_INCHI>
InChI=1S/C19H17ClN2O4/c20-12-5-6-14-17(7-8-21-18(14)9-12)22-16-4-2-1-3-15(16)19(25)26-11-13(24)10-23/h1-9,13,23-24H,10-11H2,(H,21,22)

> <PUBCHEM_IUPAC_INCHIKEY>
GWOFUCIGLDBNKM-UHFFFAOYSA-N

> <PUBCHEM_XLOGP3_AA>
3.5

> <PUBCHEM_EXACT_MASS>
372.087685

> <PUBCHEM_MOLECULAR_FORMULA>
C19H17ClN2O4

> <PUBCHEM_MOLECULAR_WEIGHT>
372.80228

> <PUBCHEM_OPENEYE_CAN_SMILES>
C1=CC=C(C(=C1)C(=O)OCC(CO)O)NC2=C3C=CC(=CC3=NC=C2)Cl

> <PUBCHEM_OPENEYE_ISO_SMILES>
C1=CC=C(C(=C1)C(=O)OCC(CO)O)NC2=C3C=CC(=CC3=NC=C2)Cl

> <PUBCHEM_CACTVS_TPSA>
91.7

> <PUBCHEM_MONOISOTOPIC_WEIGHT>
372.087685

> <PUBCHEM_TOTAL_CHARGE>
0

> <PUBCHEM_HEAVY_ATOM_COUNT>
26

> <PUBCHEM_ATOM_DEF_STEREO_COUNT>
0

> <PUBCHEM_ATOM_UDEF_STEREO_COUNT>
1

> <PUBCHEM_BOND_DEF_STEREO_COUNT>
0

> <PUBCHEM_BOND_UDEF_STEREO_COUNT>
0

> <PUBCHEM_ISOTOPIC_ATOM_COUNT>
0

> <PUBCHEM_COMPONENT_COUNT>
1

> <PUBCHEM_CACTVS_TAUTO_COUNT>
6

> <PUBCHEM_COORDINATE_TYPE>
1
5
255

> <PUBCHEM_BONDANNOTATIONS>
10  11  8
10  17  8
11  19  8
12  20  8
15  22  8
16  23  8
17  24  8
19  25  8
20  26  8
23  26  8
24  25  8
13  3  3
7  12  8
7  22  8
8  15  8
8  9  8
9  12  8
9  16  8

> <DRUG_ID>
w45

> <DRUG_NAME>
Glafenine

$$$$
2247
  CDK     0927151942
null
 65 69  0  0  0  0  0  0  0  0999 V2000
    2.3176    5.8303    0.0000 F   0  0  0  0  0  0  0  0  0  0  0  0
   11.2619   -5.8303    0.0000 O   0  0  0  0  0  0  0  0  0  0  0  0
    7.7619   -1.5002    0.0000 N   0  0  0  0  0  0  0  0  0  0  0  0
    6.2619    1.0979    0.0000 N   0  0  0  0  0  0  0  0  0  0  0  0
    4.6783    1.9026    0.0000 N   0  0  0  0  0  0  0  0  0  0  0  0
    4.6783    0.2931    0.0000 N   0  0  0  0  0  0  0  0  0  0  0  0
    6.7619    0.2318    0.0000 C   0  0  0  0  0  0  0  0  0  0  0  0
    6.2619   -0.6342    0.0000 C   0  0  0  0  0  0  0  0  0  0  0  0
    7.7619    0.2318    0.0000 C   0  0  0  0  0  0  0  0  0  0  0  0
    6.7619   -1.5002    0.0000 C   0  0  0  0  0  0  0  0  0  0  0  0
    8.2619   -0.6342    0.0000 C   0  0  0  0  0  0  0  0  0  0  0  0
    8.2619   -2.3662    0.0000 C   0  0  0  0  0  0  0  0  0  0  0  0
    9.2619   -2.3662    0.0000 C   0  0  0  0  0  0  0  0  0  0  0  0
    5.2619    1.0979    0.0000 C   0  0  0  0  0  0  0  0  0  0  0  0
    9.7619   -3.2322    0.0000 C   0  0  0  0  0  0  0  0  0  0  0  0
    3.7320    1.5979    0.0000 C   0  0  0  0  0  0  0  0  0  0  0  0
    4.9889    2.8531    0.0000 C   0  0  0  0  0  0  0  0  0  0  0  0
    3.7320    0.5979    0.0000 C   0  0  0  0  0  0  0  0  0  0  0  0
    2.8660    2.0979    0.0000 C   0  0  0  0  0  0  0  0  0  0  0  0
    4.3211    3.5974    0.0000 C   0  0  0  0  0  0  0  0  0  0  0  0
   10.7619   -3.2322    0.0000 C   0  0  0  0  0  0  0  0  0  0  0  0
    9.2619   -4.0983    0.0000 C   0  0  0  0  0  0  0  0  0  0  0  0
    2.8660    0.0979    0.0000 C   0  0  0  0  0  0  0  0  0  0  0  0
    2.0000    1.5979    0.0000 C   0  0  0  0  0  0  0  0  0  0  0  0
    2.0000    0.5979    0.0000 C   0  0  0  0  0  0  0  0  0  0  0  0
   11.2619   -4.0983    0.0000 C   0  0  0  0  0  0  0  0  0  0  0  0
    9.7619   -4.9643    0.0000 C   0  0  0  0  0  0  0  0  0  0  0  0
    3.3426    3.3912    0.0000 C   0  0  0  0  0  0  0  0  0  0  0  0
    4.6318    4.5480    0.0000 C   0  0  0  0  0  0  0  0  0  0  0  0
   10.7619   -4.9643    0.0000 C   0  0  0  0  0  0  0  0  0  0  0  0
    2.6747    4.1355    0.0000 C   0  0  0  0  0  0  0  0  0  0  0  0
    3.9639    5.2922    0.0000 C   0  0  0  0  0  0  0  0  0  0  0  0
    2.9854    5.0860    0.0000 C   0  0  0  0  0  0  0  0  0  0  0  0
   12.2619   -5.8303    0.0000 C   0  0  0  0  0  0  0  0  0  0  0  0
    7.0719    0.7688    0.0000 H   0  0  0  0  0  0  0  0  0  0  0  0
    5.7869   -0.2356    0.0000 H   0  0  0  0  0  0  0  0  0  0  0  0
    5.7869   -1.0327    0.0000 H   0  0  0  0  0  0  0  0  0  0  0  0
    8.3445    0.4439    0.0000 H   0  0  0  0  0  0  0  0  0  0  0  0
    7.6542    0.8424    0.0000 H   0  0  0  0  0  0  0  0  0  0  0  0
    6.1793   -1.7123    0.0000 H   0  0  0  0  0  0  0  0  0  0  0  0
    8.7368   -1.0327    0.0000 H   0  0  0  0  0  0  0  0  0  0  0  0
    8.7368   -0.2356    0.0000 H   0  0  0  0  0  0  0  0  0  0  0  0
    6.8695   -2.1108    0.0000 H   0  0  0  0  0  0  0  0  0  0  0  0
    7.6793   -2.5783    0.0000 H   0  0  0  0  0  0  0  0  0  0  0  0
    8.3695   -2.9768    0.0000 H   0  0  0  0  0  0  0  0  0  0  0  0
    6.5719    1.6348    0.0000 H   0  0  0  0  0  0  0  0  0  0  0  0
    9.8445   -2.1542    0.0000 H   0  0  0  0  0  0  0  0  0  0  0  0
    9.1542   -1.7556    0.0000 H   0  0  0  0  0  0  0  0  0  0  0  0
    5.5359    2.5611    0.0000 H   0  0  0  0  0  0  0  0  0  0  0  0
    5.3715    3.3410    0.0000 H   0  0  0  0  0  0  0  0  0  0  0  0
    2.8660    2.7179    0.0000 H   0  0  0  0  0  0  0  0  0  0  0  0
   11.0719   -2.6953    0.0000 H   0  0  0  0  0  0  0  0  0  0  0  0
    8.6419   -4.0983    0.0000 H   0  0  0  0  0  0  0  0  0  0  0  0
    2.8660   -0.5221    0.0000 H   0  0  0  0  0  0  0  0  0  0  0  0
    1.4631    1.9079    0.0000 H   0  0  0  0  0  0  0  0  0  0  0  0
    1.4631    0.2879    0.0000 H   0  0  0  0  0  0  0  0  0  0  0  0
   11.8819   -4.0983    0.0000 H   0  0  0  0  0  0  0  0  0  0  0  0
    9.4519   -5.5012    0.0000 H   0  0  0  0  0  0  0  0  0  0  0  0
    3.1500    2.8019    0.0000 H   0  0  0  0  0  0  0  0  0  0  0  0
    5.2384    4.6758    0.0000 H   0  0  0  0  0  0  0  0  0  0  0  0
    2.0681    4.0076    0.0000 H   0  0  0  0  0  0  0  0  0  0  0  0
    4.1565    5.8816    0.0000 H   0  0  0  0  0  0  0  0  0  0  0  0
   12.2619   -6.4503    0.0000 H   0  0  0  0  0  0  0  0  0  0  0  0
   12.8819   -5.8303    0.0000 H   0  0  0  0  0  0  0  0  0  0  0  0
   12.2619   -5.2103    0.0000 H   0  0  0  0  0  0  0  0  0  0  0  0
  1 33  1  0  0  0  0 
  2 30  1  0  0  0  0 
  2 34  1  0  0  0  0 
  3 10  1  0  0  0  0 
  3 11  1  0  0  0  0 
  3 12  1  0  0  0  0 
  4  7  1  0  0  0  0 
  4 14  1  0  0  0  0 
  4 46  1  0  0  0  0 
  5 14  1  0  0  0  0 
  5 16  1  0  0  0  0 
  5 17  1  0  0  0  0 
  6 14  2  0  0  0  0 
  6 18  1  0  0  0  0 
  7  8  1  0  0  0  0 
  7  9  1  0  0  0  0 
  7 35  1  0  0  0  0 
  8 10  1  0  0  0  0 
  8 36  1  0  0  0  0 
  8 37  1  0  0  0  0 
  9 11  1  0  0  0  0 
  9 38  1  0  0  0  0 
  9 39  1  0  0  0  0 
 10 40  1  0  0  0  0 
 10 43  1  0  0  0  0 
 11 41  1  0  0  0  0 
 11 42  1  0  0  0  0 
 12 13  1  0  0  0  0 
 12 44  1  0  0  0  0 
 12 45  1  0  0  0  0 
 13 15  1  0  0  0  0 
 13 47  1  0  0  0  0 
 13 48  1  0  0  0  0 
 15 21  2  0  0  0  0 
 15 22  1  0  0  0  0 
 16 18  1  0  0  0  0 
 16 19  2  0  0  0  0 
 17 20  1  0  0  0  0 
 17 49  1  0  0  0  0 
 17 50  1  0  0  0  0 
 18 23  2  0  0  0  0 
 19 24  1  0  0  0  0 
 19 51  1  0  0  0  0 
 20 28  2  0  0  0  0 
 20 29  1  0  0  0  0 
 21 26  1  0  0  0  0 
 21 52  1  0  0  0  0 
 22 27  2  0  0  0  0 
 22 53  1  0  0  0  0 
 23 25  1  0  0  0  0 
 23 54  1  0  0  0  0 
 24 25  2  0  0  0  0 
 24 55  1  0  0  0  0 
 25 56  1  0  0  0  0 
 26 30  2  0  0  0  0 
 26 57  1  0  0  0  0 
 27 30  1  0  0  0  0 
 27 58  1  0  0  0  0 
 28 31  1  0  0  0  0 
 28 59  1  0  0  0  0 
 29 32  2  0  0  0  0 
 29 60  1  0  0  0  0 
 31 33  2  0  0  0  0 
 31 61  1  0  0  0  0 
 32 33  1  0  0  0  0 
 32 62  1  0  0  0  0 
 34 63  1  0  0  0  0 
 34 64  1  0  0  0  0 
 34 65  1  0  0  0  0 
M  END
> <cdk:Title>
2247

> <cdk:Remark>
null

> <PUBCHEM_COMPOUND_CID>
2247

> <PUBCHEM_COMPOUND_CANONICALIZED>
1

> <PUBCHEM_CACTVS_COMPLEXITY>
599

> <PUBCHEM_CACTVS_HBOND_ACCEPTOR>
5

> <PUBCHEM_CACTVS_HBOND_DONOR>
1

> <PUBCHEM_CACTVS_ROTATABLE_BOND>
8

> <PUBCHEM_CACTVS_SUBSKEYS>
AAADceB7oQAAAAAAAAAAAAAAAAAAAWAAAAA8YMEAAAAAAFgB9AAAHwAQAAAADCzBng4z1rfMFACgAyRiZACCiC0hMqAJ2KA+fJiMbqLE+ZuUMChs0BPI6CeQwIAOIAAAAAAAACBAAAAAAAAAQAAAAAAAAA==

> <PUBCHEM_IUPAC_OPENEYE_NAME>
1-[(4-fluorophenyl)methyl]-N-[1-[2-(4-methoxyphenyl)ethyl]-4-piperidyl]benzimidazol-2-amine

> <PUBCHEM_IUPAC_CAS_NAME>
1-[(4-fluorophenyl)methyl]-N-[1-[2-(4-methoxyphenyl)ethyl]-4-piperidinyl]-2-benzimidazolamine

> <PUBCHEM_IUPAC_NAME>
1-[(4-fluorophenyl)methyl]-N-[1-[2-(4-methoxyphenyl)ethyl]piperidin-4-yl]benzimidazol-2-amine

> <PUBCHEM_IUPAC_SYSTEMATIC_NAME>
1-[(4-fluorophenyl)methyl]-N-[1-[2-(4-methoxyphenyl)ethyl]piperidin-4-yl]benzimidazol-2-amine

> <PUBCHEM_IUPAC_TRADITIONAL_NAME>
[1-(4-fluorobenzyl)benzimidazol-2-yl]-[1-[2-(4-methoxyphenyl)ethyl]-4-piperidyl]amine

> <PUBCHEM_IUPAC_INCHI>
InChI=1S/C28H31FN4O/c1-34-25-12-8-21(9-13-25)14-17-32-18-15-24(16-19-32)30-28-31-26-4-2-3-5-27(26)33(28)20-22-6-10-23(29)11-7-22/h2-13,24H,14-20H2,1H3,(H,30,31)

> <PUBCHEM_IUPAC_INCHIKEY>
GXDALQBWZGODGZ-UHFFFAOYSA-N

> <PUBCHEM_XLOGP3_AA>
6

> <PUBCHEM_EXACT_MASS>
458.24819

> <PUBCHEM_MOLECULAR_FORMULA>
C28H31FN4O

> <PUBCHEM_MOLECULAR_WEIGHT>
458.570343

> <PUBCHEM_OPENEYE_CAN_SMILES>
COC1=CC=C(C=C1)CCN2CCC(CC2)NC3=NC4=CC=CC=C4N3CC5=CC=C(C=C5)F

> <PUBCHEM_OPENEYE_ISO_SMILES>
COC1=CC=C(C=C1)CCN2CCC(CC2)NC3=NC4=CC=CC=C4N3CC5=CC=C(C=C5)F

> <PUBCHEM_CACTVS_TPSA>
42.3

> <PUBCHEM_MONOISOTOPIC_WEIGHT>
458.24819

> <PUBCHEM_TOTAL_CHARGE>
0

> <PUBCHEM_HEAVY_ATOM_COUNT>
34

> <PUBCHEM_ATOM_DEF_STEREO_COUNT>
0

> <PUBCHEM_ATOM_UDEF_STEREO_COUNT>
0

> <PUBCHEM_BOND_DEF_STEREO_COUNT>
0

> <PUBCHEM_BOND_UDEF_STEREO_COUNT>
0

> <PUBCHEM_ISOTOPIC_ATOM_COUNT>
0

> <PUBCHEM_COMPONENT_COUNT>
1

> <PUBCHEM_CACTVS_TAUTO_COUNT>
8

> <PUBCHEM_COORDINATE_TYPE>
1
5
255

> <PUBCHEM_BONDANNOTATIONS>
15  21  8
15  22  8
16  18  8
16  19  8
18  23  8
19  24  8
20  28  8
20  29  8
21  26  8
22  27  8
23  25  8
24  25  8
26  30  8
27  30  8
28  31  8
29  32  8
31  33  8
32  33  8
5  14  8
5  16  8
6  14  8
6  18  8

> <DRUG_ID>
w46

> <DRUG_NAME>
Astemizole

$$$$
5591
  CDK     0927151942
null
 58 61  0  0  0  0  0  0  0  0999 V2000
   12.5384    1.2210    0.0000 S   0  0  0  0  0  0  0  0  0  0  0  0
    6.0290   -1.9168    0.0000 O   0  0  0  0  0  0  0  0  0  0  0  0
    8.4384   -0.5428    0.0000 O   0  0  0  0  0  0  0  0  0  0  0  0
    2.5369    0.1178    0.0000 O   0  0  0  0  0  0  0  0  0  0  0  0
   14.6028   -0.3391    0.0000 O   0  0  0  0  0  0  0  0  0  0  0  0
   13.1835    2.8822    0.0000 O   0  0  0  0  0  0  0  0  0  0  0  0
   14.1483    1.3839    0.0000 N   0  0  0  0  0  0  0  0  0  0  0  0
    6.9350   -1.4030    0.0000 C   0  0  3  0  0  0  0  0  0  0  0  0
    6.9350   -0.3614    0.0000 C   0  0  0  0  0  0  0  0  0  0  0  0
    6.0290    0.1525    0.0000 C   0  0  0  0  0  0  0  0  0  0  0  0
    5.1350   -0.3822    0.0000 C   0  0  0  0  0  0  0  0  0  0  0  0
    5.1350   -1.3822    0.0000 C   0  0  0  0  0  0  0  0  0  0  0  0
    7.9350   -1.4069    0.0000 C   0  0  0  0  0  0  0  0  0  0  0  0
    7.4317   -2.2710    0.0000 C   0  0  0  0  0  0  0  0  0  0  0  0
    4.2690    0.1178    0.0000 C   0  0  0  0  0  0  0  0  0  0  0  0
    4.2690   -1.8822    0.0000 C   0  0  0  0  0  0  0  0  0  0  0  0
    3.4030   -1.3822    0.0000 C   0  0  0  0  0  0  0  0  0  0  0  0
    3.4030   -0.3822    0.0000 C   0  0  0  0  0  0  0  0  0  0  0  0
    4.2690    1.1178    0.0000 C   0  0  0  0  0  0  0  0  0  0  0  0
    4.2690   -2.8822    0.0000 C   0  0  0  0  0  0  0  0  0  0  0  0
    2.5369   -1.8822    0.0000 C   0  0  0  0  0  0  0  0  0  0  0  0
    9.4383   -0.5466    0.0000 C   0  0  0  0  0  0  0  0  0  0  0  0
   11.4383   -0.5543    0.0000 C   0  0  0  0  0  0  0  0  0  0  0  0
    9.9350   -1.4146    0.0000 C   0  0  0  0  0  0  0  0  0  0  0  0
    9.9417    0.3175    0.0000 C   0  0  0  0  0  0  0  0  0  0  0  0
   12.4383   -0.5582    0.0000 C   0  0  0  0  0  0  0  0  0  0  0  0
   12.9417    0.3059    0.0000 C   0  0  3  0  0  0  0  0  0  0  0  0
   10.9350   -1.4184    0.0000 C   0  0  0  0  0  0  0  0  0  0  0  0
   10.9417    0.3136    0.0000 C   0  0  0  0  0  0  0  0  0  0  0  0
   13.9366    0.4066    0.0000 C   0  0  0  0  0  0  0  0  0  0  0  0
   13.2842    1.8873    0.0000 C   0  0  0  0  0  0  0  0  0  0  0  0
    7.5459   -0.4675    0.0000 H   0  0  0  0  0  0  0  0  0  0  0  0
    7.1441    0.2223    0.0000 H   0  0  0  0  0  0  0  0  0  0  0  0
    6.4226    0.6315    0.0000 H   0  0  0  0  0  0  0  0  0  0  0  0
    5.6244    0.6223    0.0000 H   0  0  0  0  0  0  0  0  0  0  0  0
    7.8250   -2.0170    0.0000 H   0  0  0  0  0  0  0  0  0  0  0  0
    8.5168   -1.6212    0.0000 H   0  0  0  0  0  0  0  0  0  0  0  0
    6.8936   -2.5789    0.0000 H   0  0  0  0  0  0  0  0  0  0  0  0
    7.7396   -2.8091    0.0000 H   0  0  0  0  0  0  0  0  0  0  0  0
    7.9698   -1.9630    0.0000 H   0  0  0  0  0  0  0  0  0  0  0  0
    4.8890    1.1178    0.0000 H   0  0  0  0  0  0  0  0  0  0  0  0
    4.2690    1.7378    0.0000 H   0  0  0  0  0  0  0  0  0  0  0  0
    3.6490    1.1178    0.0000 H   0  0  0  0  0  0  0  0  0  0  0  0
    3.6490   -2.8822    0.0000 H   0  0  0  0  0  0  0  0  0  0  0  0
    4.2690   -3.5022    0.0000 H   0  0  0  0  0  0  0  0  0  0  0  0
    4.8890   -2.8822    0.0000 H   0  0  0  0  0  0  0  0  0  0  0  0
    2.2269   -1.3452    0.0000 H   0  0  0  0  0  0  0  0  0  0  0  0
    2.0000   -2.1922    0.0000 H   0  0  0  0  0  0  0  0  0  0  0  0
    2.8469   -2.4191    0.0000 H   0  0  0  0  0  0  0  0  0  0  0  0
    2.0000   -0.1922    0.0000 H   0  0  0  0  0  0  0  0  0  0  0  0
   12.3283   -1.1684    0.0000 H   0  0  0  0  0  0  0  0  0  0  0  0
   13.0201   -0.7725    0.0000 H   0  0  0  0  0  0  0  0  0  0  0  0
    9.6229   -1.9503    0.0000 H   0  0  0  0  0  0  0  0  0  0  0  0
    9.6337    0.8556    0.0000 H   0  0  0  0  0  0  0  0  0  0  0  0
   12.3226    0.3407    0.0000 H   0  0  0  0  0  0  0  0  0  0  0  0
   11.2429   -1.9566    0.0000 H   0  0  0  0  0  0  0  0  0  0  0  0
   11.2537    0.8494    0.0000 H   0  0  0  0  0  0  0  0  0  0  0  0
   14.7156    1.6339    0.0000 H   0  0  0  0  0  0  0  0  0  0  0  0
  1 27  1  0  0  0  0 
  1 31  1  0  0  0  0 
  2  8  1  0  0  0  0 
  2 12  1  0  0  0  0 
  3 13  1  0  0  0  0 
  3 22  1  0  0  0  0 
  4 18  1  0  0  0  0 
  4 50  1  0  0  0  0 
  5 30  2  0  0  0  0 
  6 31  2  0  0  0  0 
  7 30  1  0  0  0  0 
  7 31  1  0  0  0  0 
  7 58  1  0  0  0  0 
  8  9  1  0  0  0  0 
  8 13  1  0  0  0  0 
  8 14  1  0  0  0  0 
  9 10  1  0  0  0  0 
  9 32  1  0  0  0  0 
  9 33  1  0  0  0  0 
 10 11  1  0  0  0  0 
 10 34  1  0  0  0  0 
 10 35  1  0  0  0  0 
 11 12  2  0  0  0  0 
 11 15  1  0  0  0  0 
 12 16  1  0  0  0  0 
 13 36  1  0  0  0  0 
 13 37  1  0  0  0  0 
 14 38  1  0  0  0  0 
 14 39  1  0  0  0  0 
 14 40  1  0  0  0  0 
 15 18  2  0  0  0  0 
 15 19  1  0  0  0  0 
 16 17  2  0  0  0  0 
 16 20  1  0  0  0  0 
 17 18  1  0  0  0  0 
 17 21  1  0  0  0  0 
 19 41  1  0  0  0  0 
 19 42  1  0  0  0  0 
 19 43  1  0  0  0  0 
 20 44  1  0  0  0  0 
 20 45  1  0  0  0  0 
 20 46  1  0  0  0  0 
 21 47  1  0  0  0  0 
 21 48  1  0  0  0  0 
 21 49  1  0  0  0  0 
 22 24  2  0  0  0  0 
 22 25  1  0  0  0  0 
 23 26  1  0  0  0  0 
 23 28  2  0  0  0  0 
 23 29  1  0  0  0  0 
 24 28  1  0  0  0  0 
 24 53  1  0  0  0  0 
 25 29  2  0  0  0  0 
 25 54  1  0  0  0  0 
 26 27  1  0  0  0  0 
 26 51  1  0  0  0  0 
 26 52  1  0  0  0  0 
 27 30  1  0  0  0  0 
 27 55  1  0  0  0  0 
 28 56  1  0  0  0  0 
 29 57  1  0  0  0  0 
M  END
> <cdk:Title>
5591

> <cdk:Remark>
null

> <PUBCHEM_COMPOUND_CID>
5591

> <PUBCHEM_COMPOUND_CANONICALIZED>
1

> <PUBCHEM_CACTVS_COMPLEXITY>
681

> <PUBCHEM_CACTVS_HBOND_ACCEPTOR>
6

> <PUBCHEM_CACTVS_HBOND_DONOR>
2

> <PUBCHEM_CACTVS_ROTATABLE_BOND>
5

> <PUBCHEM_CACTVS_SUBSKEYS>
AAADceB6OABAAAAAAAAAAAAAAAAAAWAAAAA0YIAAAAAAAACRQAAAHgQQCAAADESl2AKyBoLABgiIAiFSEAACCABgIBAIiAEGCIgNJjKmsRqGeCCk1DEKuAfYyPCO4QADAAAYAADCAAYAADAAAAAAAAAAAA==

> <PUBCHEM_IUPAC_OPENEYE_NAME>
5-[[4-[(6-hydroxy-2,5,7,8-tetramethyl-chroman-2-yl)methoxy]phenyl]methyl]thiazolidine-2,4-dione

> <PUBCHEM_IUPAC_CAS_NAME>
5-[[4-[(6-hydroxy-2,5,7,8-tetramethyl-3,4-dihydro-2H-1-benzopyran-2-yl)methoxy]phenyl]methyl]thiazolidine-2,4-dione

> <PUBCHEM_IUPAC_NAME>
5-[[4-[(6-hydroxy-2,5,7,8-tetramethyl-3,4-dihydrochromen-2-yl)methoxy]phenyl]methyl]-1,3-thiazolidine-2,4-dione

> <PUBCHEM_IUPAC_SYSTEMATIC_NAME>
5-[[4-[(2,5,7,8-tetramethyl-6-oxidanyl-3,4-dihydrochromen-2-yl)methoxy]phenyl]methyl]-1,3-thiazolidine-2,4-dione

> <PUBCHEM_IUPAC_TRADITIONAL_NAME>
5-[4-[(6-hydroxy-2,5,7,8-tetramethyl-chroman-2-yl)methoxy]benzyl]thiazolidine-2,4-quinone

> <PUBCHEM_IUPAC_INCHI>
InChI=1S/C24H27NO5S/c1-13-14(2)21-18(15(3)20(13)26)9-10-24(4,30-21)12-29-17-7-5-16(6-8-17)11-19-22(27)25-23(28)31-19/h5-8,19,26H,9-12H2,1-4H3,(H,25,27,28)

> <PUBCHEM_IUPAC_INCHIKEY>
GXPHKUHSUJUWKP-UHFFFAOYSA-N

> <PUBCHEM_XLOGP3_AA>
5.1

> <PUBCHEM_EXACT_MASS>
441.160994

> <PUBCHEM_MOLECULAR_FORMULA>
C24H27NO5S

> <PUBCHEM_MOLECULAR_WEIGHT>
441.53988

> <PUBCHEM_OPENEYE_CAN_SMILES>
CC1=C(C(=C2CCC(OC2=C1C)(C)COC3=CC=C(C=C3)CC4C(=O)NC(=O)S4)C)O

> <PUBCHEM_OPENEYE_ISO_SMILES>
CC1=C(C(=C2CCC(OC2=C1C)(C)COC3=CC=C(C=C3)CC4C(=O)NC(=O)S4)C)O

> <PUBCHEM_CACTVS_TPSA>
110

> <PUBCHEM_MONOISOTOPIC_WEIGHT>
441.160994

> <PUBCHEM_TOTAL_CHARGE>
0

> <PUBCHEM_HEAVY_ATOM_COUNT>
31

> <PUBCHEM_ATOM_DEF_STEREO_COUNT>
0

> <PUBCHEM_ATOM_UDEF_STEREO_COUNT>
2

> <PUBCHEM_BOND_DEF_STEREO_COUNT>
0

> <PUBCHEM_BOND_UDEF_STEREO_COUNT>
0

> <PUBCHEM_ISOTOPIC_ATOM_COUNT>
0

> <PUBCHEM_COMPONENT_COUNT>
1

> <PUBCHEM_CACTVS_TAUTO_COUNT>
45

> <PUBCHEM_COORDINATE_TYPE>
1
5
255

> <PUBCHEM_BONDANNOTATIONS>
11  12  8
11  15  8
12  16  8
15  18  8
16  17  8
17  18  8
22  24  8
22  25  8
23  28  8
23  29  8
24  28  8
25  29  8
27  26  3
8  14  3

> <DRUG_ID>
w47

> <DRUG_NAME>
Troglitazone

$$$$
60149
  CDK     0927151942
null
 57 61  0  0  0  0  0  0  0  0999 V2000
    2.0000   -0.6824    0.0000 Cl  0  0  0  0  0  0  0  0  0  0  0  0
    6.7870   -6.2892    0.0000 F   0  0  0  0  0  0  0  0  0  0  0  0
    6.4897    4.8929    0.0000 O   0  0  0  0  0  0  0  0  0  0  0  0
    6.4763    1.9739    0.0000 N   0  0  0  0  0  0  0  0  0  0  0  0
    5.5443   -2.4871    0.0000 N   0  0  0  0  0  0  0  0  0  0  0  0
    8.0761    4.0812    0.0000 N   0  0  0  0  0  0  0  0  0  0  0  0
    8.0789    5.6992    0.0000 N   0  0  0  0  0  0  0  0  0  0  0  0
    5.8550    0.0729    0.0000 C   0  0  0  0  0  0  0  0  0  0  0  0
    5.1871    0.8172    0.0000 C   0  0  0  0  0  0  0  0  0  0  0  0
    6.8335    0.2791    0.0000 C   0  0  0  0  0  0  0  0  0  0  0  0
    5.4978    1.7677    0.0000 C   0  0  0  0  0  0  0  0  0  0  0  0
    7.1441    1.2296    0.0000 C   0  0  0  0  0  0  0  0  0  0  0  0
    5.5443   -0.8776    0.0000 C   0  0  0  0  0  0  0  0  0  0  0  0
    6.7870    2.9244    0.0000 C   0  0  0  0  0  0  0  0  0  0  0  0
    4.5981   -1.1824    0.0000 C   0  0  0  0  0  0  0  0  0  0  0  0
    7.7654    3.1306    0.0000 C   0  0  0  0  0  0  0  0  0  0  0  0
    6.1279   -1.6824    0.0000 C   0  0  0  0  0  0  0  0  0  0  0  0
    4.5981   -2.1824    0.0000 C   0  0  0  0  0  0  0  0  0  0  0  0
    9.0277    4.3886    0.0000 C   0  0  0  0  0  0  0  0  0  0  0  0
    3.7320   -0.6824    0.0000 C   0  0  0  0  0  0  0  0  0  0  0  0
    9.0294    5.3885    0.0000 C   0  0  0  0  0  0  0  0  0  0  0  0
    3.7320   -2.6824    0.0000 C   0  0  0  0  0  0  0  0  0  0  0  0
    5.8550   -3.4376    0.0000 C   0  0  0  0  0  0  0  0  0  0  0  0
    7.4897    4.8912    0.0000 C   0  0  0  0  0  0  0  0  0  0  0  0
    2.8660   -1.1824    0.0000 C   0  0  0  0  0  0  0  0  0  0  0  0
    2.8660   -2.1824    0.0000 C   0  0  0  0  0  0  0  0  0  0  0  0
    6.8335   -3.6438    0.0000 C   0  0  0  0  0  0  0  0  0  0  0  0
    5.1871   -4.1819    0.0000 C   0  0  0  0  0  0  0  0  0  0  0  0
    7.1441   -4.5944    0.0000 C   0  0  0  0  0  0  0  0  0  0  0  0
    5.4978   -5.1325    0.0000 C   0  0  0  0  0  0  0  0  0  0  0  0
    6.4763   -5.3387    0.0000 C   0  0  0  0  0  0  0  0  0  0  0  0
    6.2690   -0.3886    0.0000 H   0  0  0  0  0  0  0  0  0  0  0  0
    6.8540   -0.3406    0.0000 H   0  0  0  0  0  0  0  0  0  0  0  0
    7.4473    0.1917    0.0000 H   0  0  0  0  0  0  0  0  0  0  0  0
    4.6402    1.1092    0.0000 H   0  0  0  0  0  0  0  0  0  0  0  0
    4.8046    0.3293    0.0000 H   0  0  0  0  0  0  0  0  0  0  0  0
    7.6910    0.9376    0.0000 H   0  0  0  0  0  0  0  0  0  0  0  0
    7.5267    1.7175    0.0000 H   0  0  0  0  0  0  0  0  0  0  0  0
    5.4772    2.3874    0.0000 H   0  0  0  0  0  0  0  0  0  0  0  0
    4.8840    1.8550    0.0000 H   0  0  0  0  0  0  0  0  0  0  0  0
    6.7664    3.5441    0.0000 H   0  0  0  0  0  0  0  0  0  0  0  0
    6.1731    3.0118    0.0000 H   0  0  0  0  0  0  0  0  0  0  0  0
    7.7860    2.5110    0.0000 H   0  0  0  0  0  0  0  0  0  0  0  0
    8.3793    3.0433    0.0000 H   0  0  0  0  0  0  0  0  0  0  0  0
    6.7479   -1.6824    0.0000 H   0  0  0  0  0  0  0  0  0  0  0  0
    9.1556    3.7819    0.0000 H   0  0  0  0  0  0  0  0  0  0  0  0
    9.6444    4.4523    0.0000 H   0  0  0  0  0  0  0  0  0  0  0  0
    3.7320   -0.0624    0.0000 H   0  0  0  0  0  0  0  0  0  0  0  0
    9.6459    5.3227    0.0000 H   0  0  0  0  0  0  0  0  0  0  0  0
    9.1594    5.9948    0.0000 H   0  0  0  0  0  0  0  0  0  0  0  0
    3.7320   -3.3024    0.0000 H   0  0  0  0  0  0  0  0  0  0  0  0
    7.8883    6.2892    0.0000 H   0  0  0  0  0  0  0  0  0  0  0  0
    2.3291   -2.4924    0.0000 H   0  0  0  0  0  0  0  0  0  0  0  0
    7.2475   -3.1824    0.0000 H   0  0  0  0  0  0  0  0  0  0  0  0
    4.5804   -4.0541    0.0000 H   0  0  0  0  0  0  0  0  0  0  0  0
    7.7508   -4.7222    0.0000 H   0  0  0  0  0  0  0  0  0  0  0  0
    5.0837   -5.5939    0.0000 H   0  0  0  0  0  0  0  0  0  0  0  0
  1 25  1  0  0  0  0 
  2 31  1  0  0  0  0 
  3 24  2  0  0  0  0 
  4 11  1  0  0  0  0 
  4 12  1  0  0  0  0 
  4 14  1  0  0  0  0 
  5 17  1  0  0  0  0 
  5 18  1  0  0  0  0 
  5 23  1  0  0  0  0 
  6 16  1  0  0  0  0 
  6 19  1  0  0  0  0 
  6 24  1  0  0  0  0 
  7 21  1  0  0  0  0 
  7 24  1  0  0  0  0 
  7 52  1  0  0  0  0 
  8  9  1  0  0  0  0 
  8 10  1  0  0  0  0 
  8 13  1  0  0  0  0 
  8 32  1  0  0  0  0 
  9 11  1  0  0  0  0 
  9 35  1  0  0  0  0 
  9 36  1  0  0  0  0 
 10 12  1  0  0  0  0 
 10 33  1  0  0  0  0 
 10 34  1  0  0  0  0 
 11 39  1  0  0  0  0 
 11 40  1  0  0  0  0 
 12 37  1  0  0  0  0 
 12 38  1  0  0  0  0 
 13 15  1  0  0  0  0 
 13 17  2  0  0  0  0 
 14 16  1  0  0  0  0 
 14 41  1  0  0  0  0 
 14 42  1  0  0  0  0 
 15 18  2  0  0  0  0 
 15 20  1  0  0  0  0 
 16 43  1  0  0  0  0 
 16 44  1  0  0  0  0 
 17 45  1  0  0  0  0 
 18 22  1  0  0  0  0 
 19 21  1  0  0  0  0 
 19 46  1  0  0  0  0 
 19 47  1  0  0  0  0 
 20 25  2  0  0  0  0 
 20 48  1  0  0  0  0 
 21 49  1  0  0  0  0 
 21 50  1  0  0  0  0 
 22 26  2  0  0  0  0 
 22 51  1  0  0  0  0 
 23 27  2  0  0  0  0 
 23 28  1  0  0  0  0 
 25 26  1  0  0  0  0 
 26 53  1  0  0  0  0 
 27 29  1  0  0  0  0 
 27 54  1  0  0  0  0 
 28 30  2  0  0  0  0 
 28 55  1  0  0  0  0 
 29 31  2  0  0  0  0 
 29 56  1  0  0  0  0 
 30 31  1  0  0  0  0 
 30 57  1  0  0  0  0 
M  END
> <cdk:Title>
60149

> <cdk:Remark>
null

> <PUBCHEM_COMPOUND_CID>
60149

> <PUBCHEM_COMPOUND_CANONICALIZED>
1

> <PUBCHEM_CACTVS_COMPLEXITY>
623

> <PUBCHEM_CACTVS_HBOND_ACCEPTOR>
3

> <PUBCHEM_CACTVS_HBOND_DONOR>
1

> <PUBCHEM_CACTVS_ROTATABLE_BOND>
5

> <PUBCHEM_CACTVS_SUBSKEYS>
AAADceB7oQAEAAAAAAAAAAAAAAAAAWLAAAA8YIAAAAAAAFgB9AAAHwIQAAAADQrBHiw9wPPMEACoAzRnVACCgCAxByAI2KA4ZpiIYOLBk5GUIAholgLIyAcQgMAOgABAIAACAAAAAIBAAAQAAAAAAAAAAA==

> <PUBCHEM_IUPAC_OPENEYE_NAME>
1-[2-[4-[5-chloro-1-(4-fluorophenyl)indol-3-yl]-1-piperidyl]ethyl]imidazolidin-2-one

> <PUBCHEM_IUPAC_CAS_NAME>
1-[2-[4-[5-chloro-1-(4-fluorophenyl)-3-indolyl]-1-piperidinyl]ethyl]-2-imidazolidinone

> <PUBCHEM_IUPAC_NAME>
1-[2-[4-[5-chloro-1-(4-fluorophenyl)indol-3-yl]piperidin-1-yl]ethyl]imidazolidin-2-one

> <PUBCHEM_IUPAC_SYSTEMATIC_NAME>
1-[2-[4-[5-chloranyl-1-(4-fluorophenyl)indol-3-yl]piperidin-1-yl]ethyl]imidazolidin-2-one

> <PUBCHEM_IUPAC_TRADITIONAL_NAME>
1-[2-[4-[5-chloro-1-(4-fluorophenyl)indol-3-yl]piperidino]ethyl]-2-imidazolidinone

> <PUBCHEM_IUPAC_INCHI>
InChI=1S/C24H26ClFN4O/c25-18-1-6-23-21(15-18)22(16-30(23)20-4-2-19(26)3-5-20)17-7-10-28(11-8-17)13-14-29-12-9-27-24(29)31/h1-6,15-17H,7-14H2,(H,27,31)

> <PUBCHEM_IUPAC_INCHIKEY>
GZKLJWGUPQBVJQ-UHFFFAOYSA-N

> <PUBCHEM_XLOGP3_AA>
4.1

> <PUBCHEM_EXACT_MASS>
440.177917

> <PUBCHEM_MOLECULAR_FORMULA>
C24H26ClFN4O

> <PUBCHEM_MOLECULAR_WEIGHT>
440.940843

> <PUBCHEM_OPENEYE_CAN_SMILES>
C1CN(CCC1C2=CN(C3=C2C=C(C=C3)Cl)C4=CC=C(C=C4)F)CCN5CCNC5=O

> <PUBCHEM_OPENEYE_ISO_SMILES>
C1CN(CCC1C2=CN(C3=C2C=C(C=C3)Cl)C4=CC=C(C=C4)F)CCN5CCNC5=O

> <PUBCHEM_CACTVS_TPSA>
40.5

> <PUBCHEM_MONOISOTOPIC_WEIGHT>
440.177917

> <PUBCHEM_TOTAL_CHARGE>
0

> <PUBCHEM_HEAVY_ATOM_COUNT>
31

> <PUBCHEM_ATOM_DEF_STEREO_COUNT>
0

> <PUBCHEM_ATOM_UDEF_STEREO_COUNT>
0

> <PUBCHEM_BOND_DEF_STEREO_COUNT>
0

> <PUBCHEM_BOND_UDEF_STEREO_COUNT>
0

> <PUBCHEM_ISOTOPIC_ATOM_COUNT>
0

> <PUBCHEM_COMPONENT_COUNT>
1

> <PUBCHEM_CACTVS_TAUTO_COUNT>
2

> <PUBCHEM_COORDINATE_TYPE>
1
5
255

> <PUBCHEM_BONDANNOTATIONS>
13  15  8
13  17  8
15  18  8
15  20  8
18  22  8
20  25  8
22  26  8
23  27  8
23  28  8
25  26  8
27  29  8
28  30  8
29  31  8
30  31  8
5  17  8
5  18  8

> <DRUG_ID>
w48

> <DRUG_NAME>
Sertindole

$$$$
6212
  CDK     0927151942
null
  5  4  0  0  0  0  0  0  0  0999 V2000
    3.7320    0.7500    0.0000 Cl  0  0  0  0  0  0  0  0  0  0  0  0
    2.0000    0.7500    0.0000 Cl  0  0  0  0  0  0  0  0  0  0  0  0
    2.8660   -0.7500    0.0000 Cl  0  0  0  0  0  0  0  0  0  0  0  0
    2.8660    0.2500    0.0000 C   0  0  0  0  0  0  0  0  0  0  0  0
    2.8660    0.8700    0.0000 H   0  0  0  0  0  0  0  0  0  0  0  0
  1  4  1  0  0  0  0 
  2  4  1  0  0  0  0 
  3  4  1  0  0  0  0 
  4  5  1  0  0  0  0 
M  END
> <cdk:Title>
6212

> <cdk:Remark>
null

> <PUBCHEM_COMPOUND_CID>
6212

> <PUBCHEM_COMPOUND_CANONICALIZED>
1

> <PUBCHEM_CACTVS_COMPLEXITY>
8

> <PUBCHEM_CACTVS_HBOND_ACCEPTOR>
0

> <PUBCHEM_CACTVS_HBOND_DONOR>
0

> <PUBCHEM_CACTVS_ROTATABLE_BOND>
0

> <PUBCHEM_CACTVS_SUBSKEYS>
AAADcQAAAAAGAAAAAAAAAAAAAAAAAAAAAAAAAAAAAAAAAAAAAAAAEAIAAAAAAAAAAMAAAAAAAAAAAAAAAAAAAAAAAAAAAAAAAAAAAAAAAAAAAAAAAAAAAAAAAAAAAAAAAAAAAAAAAAAAAAAAAAAAAAAAAA==

> <PUBCHEM_IUPAC_OPENEYE_NAME>
chloroform

> <PUBCHEM_IUPAC_CAS_NAME>
chloroform

> <PUBCHEM_IUPAC_NAME>
chloroform

> <PUBCHEM_IUPAC_SYSTEMATIC_NAME>
tris(chloranyl)methane

> <PUBCHEM_IUPAC_TRADITIONAL_NAME>
chloroform

> <PUBCHEM_IUPAC_INCHI>
InChI=1S/CHCl3/c2-1(3)4/h1H

> <PUBCHEM_IUPAC_INCHIKEY>
HEDRZPFGACZZDS-UHFFFAOYSA-N

> <PUBCHEM_XLOGP3_AA>
2.3

> <PUBCHEM_EXACT_MASS>
117.914383

> <PUBCHEM_MOLECULAR_FORMULA>
CHCl3

> <PUBCHEM_MOLECULAR_WEIGHT>
119.37764

> <PUBCHEM_OPENEYE_CAN_SMILES>
C(Cl)(Cl)Cl

> <PUBCHEM_OPENEYE_ISO_SMILES>
C(Cl)(Cl)Cl

> <PUBCHEM_CACTVS_TPSA>
0

> <PUBCHEM_MONOISOTOPIC_WEIGHT>
117.914383

> <PUBCHEM_TOTAL_CHARGE>
0

> <PUBCHEM_HEAVY_ATOM_COUNT>
4

> <PUBCHEM_ATOM_DEF_STEREO_COUNT>
0

> <PUBCHEM_ATOM_UDEF_STEREO_COUNT>
0

> <PUBCHEM_BOND_DEF_STEREO_COUNT>
0

> <PUBCHEM_BOND_UDEF_STEREO_COUNT>
0

> <PUBCHEM_ISOTOPIC_ATOM_COUNT>
0

> <PUBCHEM_COMPONENT_COUNT>
1

> <PUBCHEM_CACTVS_TAUTO_COUNT>
1

> <PUBCHEM_COORDINATE_TYPE>
1
5
255

> <DRUG_ID>
w49

> <DRUG_NAME>
Chloroform

$$$$
275196
  CDK     0927151942
null
 53 57  0  0  0  0  0  0  0  0999 V2000
    6.5678    0.1136    0.0000 O   0  0  0  0  0  0  0  0  0  0  0  0
    7.5047   -0.4952    0.0000 O   0  0  0  0  0  0  0  0  0  0  0  0
    9.3170   -1.6905    0.0000 O   0  0  0  0  0  0  0  0  0  0  0  0
    9.3170   -3.3000    0.0000 O   0  0  0  0  0  0  0  0  0  0  0  0
    4.9425    2.7779    0.0000 O   0  0  0  0  0  0  0  0  0  0  0  0
    6.8739    1.8634    0.0000 O   0  0  0  0  0  0  0  0  0  0  0  0
    2.9808    2.3882    0.0000 O   0  0  0  0  0  0  0  0  0  0  0  0
    4.8387   -1.9744    0.0000 N   0  0  3  0  0  0  0  0  0  0  0  0
    5.7448   -1.4606    0.0000 C   0  0  1  0  0  0  0  0  0  0  0  0
    5.7563   -0.4606    0.0000 C   0  0  2  0  0  0  0  0  0  0  0  0
    6.6387   -1.9952    0.0000 C   0  0  0  0  0  0  0  0  0  0  0  0
    4.8387   -3.0161    0.0000 C   0  0  0  0  0  0  0  0  0  0  0  0
    6.6387   -2.9952    0.0000 C   0  0  0  0  0  0  0  0  0  0  0  0
    5.7448   -3.5299    0.0000 C   0  0  0  0  0  0  0  0  0  0  0  0
    4.9584    0.1322    0.0000 C   0  0  0  0  0  0  0  0  0  0  0  0
    7.5047   -1.4952    0.0000 C   0  0  0  0  0  0  0  0  0  0  0  0
    3.9746   -1.4711    0.0000 C   0  0  0  0  0  0  0  0  0  0  0  0
    5.2800    1.0791    0.0000 C   0  0  0  0  0  0  0  0  0  0  0  0
    7.5047   -3.4952    0.0000 C   0  0  0  0  0  0  0  0  0  0  0  0
    8.3708   -1.9952    0.0000 C   0  0  0  0  0  0  0  0  0  0  0  0
    8.3708   -2.9952    0.0000 C   0  0  0  0  0  0  0  0  0  0  0  0
    6.2740    1.0633    0.0000 C   0  0  0  0  0  0  0  0  0  0  0  0
    3.9776   -0.0627    0.0000 C   0  0  0  0  0  0  0  0  0  0  0  0
    4.6208    1.8311    0.0000 C   0  0  0  0  0  0  0  0  0  0  0  0
    3.3184    0.6893    0.0000 C   0  0  0  0  0  0  0  0  0  0  0  0
    3.6400    1.6362    0.0000 C   0  0  0  0  0  0  0  0  0  0  0  0
    9.9006   -2.4952    0.0000 C   0  0  0  0  0  0  0  0  0  0  0  0
    8.3708    0.0048    0.0000 C   0  0  0  0  0  0  0  0  0  0  0  0
    4.2833    3.5299    0.0000 C   0  0  0  0  0  0  0  0  0  0  0  0
    2.0000    2.1933    0.0000 C   0  0  0  0  0  0  0  0  0  0  0  0
    5.0128   -1.0285    0.0000 H   0  0  0  0  0  0  0  0  0  0  0  0
    6.5090   -0.8556    0.0000 H   0  0  0  0  0  0  0  0  0  0  0  0
    4.2278   -2.9100    0.0000 H   0  0  0  0  0  0  0  0  0  0  0  0
    4.6296   -3.5998    0.0000 H   0  0  0  0  0  0  0  0  0  0  0  0
    5.3511   -4.0089    0.0000 H   0  0  0  0  0  0  0  0  0  0  0  0
    6.1494   -3.9997    0.0000 H   0  0  0  0  0  0  0  0  0  0  0  0
    4.2867   -0.9354    0.0000 H   0  0  0  0  0  0  0  0  0  0  0  0
    3.4389   -1.1590    0.0000 H   0  0  0  0  0  0  0  0  0  0  0  0
    3.6625   -2.0068    0.0000 H   0  0  0  0  0  0  0  0  0  0  0  0
    7.5047   -4.1152    0.0000 H   0  0  0  0  0  0  0  0  0  0  0  0
    3.7782   -0.6497    0.0000 H   0  0  0  0  0  0  0  0  0  0  0  0
    2.7103    0.5685    0.0000 H   0  0  0  0  0  0  0  0  0  0  0  0
   10.3615   -2.9100    0.0000 H   0  0  0  0  0  0  0  0  0  0  0  0
   10.3615   -2.0805    0.0000 H   0  0  0  0  0  0  0  0  0  0  0  0
    8.6808   -0.5322    0.0000 H   0  0  0  0  0  0  0  0  0  0  0  0
    8.9077    0.3148    0.0000 H   0  0  0  0  0  0  0  0  0  0  0  0
    8.0608    0.5417    0.0000 H   0  0  0  0  0  0  0  0  0  0  0  0
    4.7495    3.9386    0.0000 H   0  0  0  0  0  0  0  0  0  0  0  0
    3.8746    3.9961    0.0000 H   0  0  0  0  0  0  0  0  0  0  0  0
    3.8171    3.1212    0.0000 H   0  0  0  0  0  0  0  0  0  0  0  0
    1.8792    2.8014    0.0000 H   0  0  0  0  0  0  0  0  0  0  0  0
    1.3919    2.0724    0.0000 H   0  0  0  0  0  0  0  0  0  0  0  0
    2.1208    1.5852    0.0000 H   0  0  0  0  0  0  0  0  0  0  0  0
  1 10  1  0  0  0  0 
  1 22  1  0  0  0  0 
  2 16  1  0  0  0  0 
  2 28  1  0  0  0  0 
  3 20  1  0  0  0  0 
  3 27  1  0  0  0  0 
  4 21  1  0  0  0  0 
  4 27  1  0  0  0  0 
  5 24  1  0  0  0  0 
  5 29  1  0  0  0  0 
  6 22  2  0  0  0  0 
  7 26  1  0  0  0  0 
  7 30  1  0  0  0  0 
  8  9  1  0  0  0  0 
  8 12  1  0  0  0  0 
  8 17  1  0  0  0  0 
  9 10  1  0  0  0  0 
  9 11  1  0  0  0  0 
  9 31  1  6  0  0  0 
 10 15  1  0  0  0  0 
 10 32  1  1  0  0  0 
 11 13  1  0  0  0  0 
 11 16  2  0  0  0  0 
 12 14  1  0  0  0  0 
 12 33  1  0  0  0  0 
 12 34  1  0  0  0  0 
 13 14  1  0  0  0  0 
 13 19  2  0  0  0  0 
 14 35  1  0  0  0  0 
 14 36  1  0  0  0  0 
 15 18  2  0  0  0  0 
 15 23  1  0  0  0  0 
 16 20  1  0  0  0  0 
 17 37  1  0  0  0  0 
 17 38  1  0  0  0  0 
 17 39  1  0  0  0  0 
 18 22  1  0  0  0  0 
 18 24  1  0  0  0  0 
 19 21  1  0  0  0  0 
 19 40  1  0  0  0  0 
 20 21  2  0  0  0  0 
 23 25  2  0  0  0  0 
 23 41  1  0  0  0  0 
 24 26  2  0  0  0  0 
 25 26  1  0  0  0  0 
 25 42  1  0  0  0  0 
 27 43  1  0  0  0  0 
 27 44  1  0  0  0  0 
 28 45  1  0  0  0  0 
 28 46  1  0  0  0  0 
 28 47  1  0  0  0  0 
 29 48  1  0  0  0  0 
 29 49  1  0  0  0  0 
 29 50  1  0  0  0  0 
 30 51  1  0  0  0  0 
 30 52  1  0  0  0  0 
 30 53  1  0  0  0  0 
M  END
> <cdk:Title>
275196

> <cdk:Remark>
null

> <PUBCHEM_COMPOUND_CID>
275196

> <PUBCHEM_COMPOUND_CANONICALIZED>
1

> <PUBCHEM_CACTVS_COMPLEXITY>
647

> <PUBCHEM_CACTVS_HBOND_ACCEPTOR>
8

> <PUBCHEM_CACTVS_HBOND_DONOR>
0

> <PUBCHEM_CACTVS_ROTATABLE_BOND>
4

> <PUBCHEM_CACTVS_SUBSKEYS>
AAADceB6OAAAAAAAAAAAAAAAAAAAASJAAAA8YIAAAAAAAEixQAAAHgAAAAAADDzhmAcyDoMABACIAiDSCACCCAAkIAAIiAEOjMgfJzaEtRunMWpn4BWeqQf6+f+eoAABCAAYQABAAAIQADCAAAAAAAAAAA==

> <PUBCHEM_IUPAC_OPENEYE_NAME>
(3S)-6,7-dimethoxy-3-[(5R)-4-methoxy-6-methyl-7,8-dihydro-5H-[1,3]dioxolo[4,5-g]isoquinolin-5-yl]-3H-isobenzofuran-1-one

> <PUBCHEM_IUPAC_CAS_NAME>
(3S)-6,7-dimethoxy-3-[(5R)-4-methoxy-6-methyl-7,8-dihydro-5H-[1,3]dioxolo[4,5-g]isoquinolin-5-yl]-3H-isobenzofuran-1-one

> <PUBCHEM_IUPAC_NAME>
(3S)-6,7-dimethoxy-3-[(5R)-4-methoxy-6-methyl-7,8-dihydro-5H-[1,3]dioxolo[4,5-g]isoquinolin-5-yl]-3H-2-benzofuran-1-one

> <PUBCHEM_IUPAC_SYSTEMATIC_NAME>
(3S)-6,7-dimethoxy-3-[(5R)-4-methoxy-6-methyl-7,8-dihydro-5H-[1,3]dioxolo[4,5-g]isoquinolin-5-yl]-3H-2-benzofuran-1-one

> <PUBCHEM_IUPAC_TRADITIONAL_NAME>
(3S)-6,7-dimethoxy-3-[(5R)-4-methoxy-6-methyl-7,8-dihydro-5H-[1,3]dioxol[4,5-g]isoquinolin-5-yl]phthalide

> <PUBCHEM_IUPAC_INCHI>
InChI=1S/C22H23NO7/c1-23-8-7-11-9-14-20(29-10-28-14)21(27-4)15(11)17(23)18-12-5-6-13(25-2)19(26-3)16(12)22(24)30-18/h5-6,9,17-18H,7-8,10H2,1-4H3/t17-,18+/m1/s1

> <PUBCHEM_IUPAC_INCHIKEY>
AKNNEGZIBPJZJG-MSOLQXFVSA-N

> <PUBCHEM_XLOGP3_AA>
2.7

> <PUBCHEM_EXACT_MASS>
413.147452

> <PUBCHEM_MOLECULAR_FORMULA>
C22H23NO7

> <PUBCHEM_MOLECULAR_WEIGHT>
413.42052

> <PUBCHEM_OPENEYE_CAN_SMILES>
CN1CCC2=CC3=C(C(=C2C1C4C5=C(C(=C(C=C5)OC)OC)C(=O)O4)OC)OCO3

> <PUBCHEM_OPENEYE_ISO_SMILES>
CN1CCC2=CC3=C(C(=C2[C@@H]1[C@@H]4C5=C(C(=C(C=C5)OC)OC)C(=O)O4)OC)OCO3

> <PUBCHEM_CACTVS_TPSA>
75.7

> <PUBCHEM_MONOISOTOPIC_WEIGHT>
413.147452

> <PUBCHEM_TOTAL_CHARGE>
0

> <PUBCHEM_HEAVY_ATOM_COUNT>
30

> <PUBCHEM_ATOM_DEF_STEREO_COUNT>
2

> <PUBCHEM_ATOM_UDEF_STEREO_COUNT>
0

> <PUBCHEM_BOND_DEF_STEREO_COUNT>
0

> <PUBCHEM_BOND_UDEF_STEREO_COUNT>
0

> <PUBCHEM_ISOTOPIC_ATOM_COUNT>
0

> <PUBCHEM_COMPONENT_COUNT>
1

> <PUBCHEM_CACTVS_TAUTO_COUNT>
1

> <PUBCHEM_COORDINATE_TYPE>
1
5
255

> <PUBCHEM_BONDANNOTATIONS>
10  32  5
11  13  8
11  16  8
13  19  8
15  18  8
15  23  8
16  20  8
18  24  8
19  21  8
20  21  8
23  25  8
24  26  8
25  26  8
9  31  6

> <DRUG_ID>
w5

> <DRUG_NAME>
Noscapine

$$$$
6179
  CDK     0927151942
null
 22 22  0  0  0  0  0  0  0  0999 V2000
    3.7320    1.0950    0.0000 N   0  0  0  0  0  0  0  0  0  0  0  0
    3.7320    2.0950    0.0000 N   0  0  0  0  0  0  0  0  0  0  0  0
    2.8660    0.5950    0.0000 C   0  0  3  0  0  0  0  0  0  0  0  0
    2.8660   -0.4050    0.0000 C   0  0  0  0  0  0  0  0  0  0  0  0
    2.0000    1.0950    0.0000 C   0  0  0  0  0  0  0  0  0  0  0  0
    2.0000   -0.9050    0.0000 C   0  0  0  0  0  0  0  0  0  0  0  0
    3.7320   -0.9050    0.0000 C   0  0  0  0  0  0  0  0  0  0  0  0
    2.0000   -1.9050    0.0000 C   0  0  0  0  0  0  0  0  0  0  0  0
    3.7320   -1.9050    0.0000 C   0  0  0  0  0  0  0  0  0  0  0  0
    2.8660   -2.4050    0.0000 C   0  0  0  0  0  0  0  0  0  0  0  0
    2.8660    1.4450    0.0000 H   0  0  0  0  0  0  0  0  0  0  0  0
    2.3100    1.6319    0.0000 H   0  0  0  0  0  0  0  0  0  0  0  0
    1.4631    1.4050    0.0000 H   0  0  0  0  0  0  0  0  0  0  0  0
    1.6900    0.5581    0.0000 H   0  0  0  0  0  0  0  0  0  0  0  0
    1.4631   -0.5950    0.0000 H   0  0  0  0  0  0  0  0  0  0  0  0
    4.2690   -0.5950    0.0000 H   0  0  0  0  0  0  0  0  0  0  0  0
    4.2690    0.7850    0.0000 H   0  0  0  0  0  0  0  0  0  0  0  0
    1.4631   -2.2150    0.0000 H   0  0  0  0  0  0  0  0  0  0  0  0
    4.2690   -2.2150    0.0000 H   0  0  0  0  0  0  0  0  0  0  0  0
    2.8660   -3.0250    0.0000 H   0  0  0  0  0  0  0  0  0  0  0  0
    4.2690    2.4050    0.0000 H   0  0  0  0  0  0  0  0  0  0  0  0
    3.1951    2.4050    0.0000 H   0  0  0  0  0  0  0  0  0  0  0  0
  1  2  1  0  0  0  0 
  1  3  1  0  0  0  0 
  1 17  1  0  0  0  0 
  2 21  1  0  0  0  0 
  2 22  1  0  0  0  0 
  3  4  1  0  0  0  0 
  3  5  1  0  0  0  0 
  3 11  1  0  0  0  0 
  4  6  2  0  0  0  0 
  4  7  1  0  0  0  0 
  5 12  1  0  0  0  0 
  5 13  1  0  0  0  0 
  5 14  1  0  0  0  0 
  6  8  1  0  0  0  0 
  6 15  1  0  0  0  0 
  7  9  2  0  0  0  0 
  7 16  1  0  0  0  0 
  8 10  2  0  0  0  0 
  8 18  1  0  0  0  0 
  9 10  1  0  0  0  0 
  9 19  1  0  0  0  0 
 10 20  1  0  0  0  0 
M  END
> <cdk:Title>
6179

> <cdk:Remark>
null

> <PUBCHEM_COMPOUND_CID>
6179

> <PUBCHEM_COMPOUND_CANONICALIZED>
1

> <PUBCHEM_CACTVS_COMPLEXITY>
87.3

> <PUBCHEM_CACTVS_HBOND_ACCEPTOR>
2

> <PUBCHEM_CACTVS_HBOND_DONOR>
2

> <PUBCHEM_CACTVS_ROTATABLE_BOND>
2

> <PUBCHEM_CACTVS_SUBSKEYS>
AAADccBzAAAAAAAAAAAAAAAAAAAAAAAAAAAwAAAAAAAAAAABAAAAHAAYAAAADCjBGAQyAIBiAACAAiBCAACCAAAgAAIYqIAABIgIICKAkRGAIABgkAAIiAcQgIAOAAAAAAAAAAAAAAAAAAAAAAAAAAAAAA==

> <PUBCHEM_IUPAC_OPENEYE_NAME>
1-phenylethylhydrazine

> <PUBCHEM_IUPAC_CAS_NAME>
1-phenylethylhydrazine

> <PUBCHEM_IUPAC_NAME>
1-phenylethylhydrazine

> <PUBCHEM_IUPAC_SYSTEMATIC_NAME>
1-phenylethyldiazane

> <PUBCHEM_IUPAC_TRADITIONAL_NAME>
1-phenylethylhydrazine

> <PUBCHEM_IUPAC_INCHI>
InChI=1S/C8H12N2/c1-7(10-9)8-5-3-2-4-6-8/h2-7,10H,9H2,1H3

> <PUBCHEM_IUPAC_INCHIKEY>
HHRZAEJMHSGZNP-UHFFFAOYSA-N

> <PUBCHEM_XLOGP3_AA>
0.9

> <PUBCHEM_EXACT_MASS>
136.100048

> <PUBCHEM_MOLECULAR_FORMULA>
C8H12N2

> <PUBCHEM_MOLECULAR_WEIGHT>
136.19428

> <PUBCHEM_OPENEYE_CAN_SMILES>
CC(C1=CC=CC=C1)NN

> <PUBCHEM_OPENEYE_ISO_SMILES>
CC(C1=CC=CC=C1)NN

> <PUBCHEM_CACTVS_TPSA>
38

> <PUBCHEM_MONOISOTOPIC_WEIGHT>
136.100048

> <PUBCHEM_TOTAL_CHARGE>
0

> <PUBCHEM_HEAVY_ATOM_COUNT>
10

> <PUBCHEM_ATOM_DEF_STEREO_COUNT>
0

> <PUBCHEM_ATOM_UDEF_STEREO_COUNT>
1

> <PUBCHEM_BOND_DEF_STEREO_COUNT>
0

> <PUBCHEM_BOND_UDEF_STEREO_COUNT>
0

> <PUBCHEM_ISOTOPIC_ATOM_COUNT>
0

> <PUBCHEM_COMPONENT_COUNT>
1

> <PUBCHEM_CACTVS_TAUTO_COUNT>
1

> <PUBCHEM_COORDINATE_TYPE>
1
5
255

> <PUBCHEM_BONDANNOTATIONS>
3  11  3
4  6  8
4  7  8
6  8  8
7  9  8
8  10  8
9  10  8

> <DRUG_ID>
w50

> <DRUG_NAME>
Mebanazine

$$$$
26879
  CDK     0927151942
null
 26 28  0  0  0  0  0  0  0  0999 V2000
    7.4851   -0.8047    0.0000 S   0  0  0  0  0  0  0  0  0  0  0  0
    6.5388    0.5000    0.0000 N   0  0  0  0  0  0  0  0  0  0  0  0
    5.5878   -0.8090    0.0000 N   0  0  0  0  0  0  0  0  0  0  0  0
    5.5878    0.8090    0.0000 C   0  0  0  0  0  0  0  0  0  0  0  0
    5.0000    0.0000    0.0000 C   0  0  2  0  0  0  0  0  0  0  0  0
    7.4851    0.8047    0.0000 C   0  0  0  0  0  0  0  0  0  0  0  0
    6.5388   -0.5000    0.0000 C   0  0  0  0  0  0  0  0  0  0  0  0
    8.0687    0.0000    0.0000 C   0  0  0  0  0  0  0  0  0  0  0  0
    4.0000    0.0000    0.0000 C   0  0  0  0  0  0  0  0  0  0  0  0
    3.5000    0.8660    0.0000 C   0  0  0  0  0  0  0  0  0  0  0  0
    3.5000   -0.8660    0.0000 C   0  0  0  0  0  0  0  0  0  0  0  0
    2.5000    0.8660    0.0000 C   0  0  0  0  0  0  0  0  0  0  0  0
    2.5000   -0.8660    0.0000 C   0  0  0  0  0  0  0  0  0  0  0  0
    2.0000    0.0000    0.0000 C   0  0  0  0  0  0  0  0  0  0  0  0
    5.8400    1.3754    0.0000 H   0  0  0  0  0  0  0  0  0  0  0  0
    5.0508    1.1190    0.0000 H   0  0  0  0  0  0  0  0  0  0  0  0
    4.7185   -0.5524    0.0000 H   0  0  0  0  0  0  0  0  0  0  0  0
    8.0224    1.1140    0.0000 H   0  0  0  0  0  0  0  0  0  0  0  0
    7.2340    1.3716    0.0000 H   0  0  0  0  0  0  0  0  0  0  0  0
    8.5295   -0.4147    0.0000 H   0  0  0  0  0  0  0  0  0  0  0  0
    8.5295    0.4147    0.0000 H   0  0  0  0  0  0  0  0  0  0  0  0
    3.8100    1.4030    0.0000 H   0  0  0  0  0  0  0  0  0  0  0  0
    3.8100   -1.4030    0.0000 H   0  0  0  0  0  0  0  0  0  0  0  0
    2.1900    1.4030    0.0000 H   0  0  0  0  0  0  0  0  0  0  0  0
    2.1900   -1.4030    0.0000 H   0  0  0  0  0  0  0  0  0  0  0  0
    1.3800    0.0000    0.0000 H   0  0  0  0  0  0  0  0  0  0  0  0
  1  7  1  0  0  0  0 
  1  8  1  0  0  0  0 
  2  4  1  0  0  0  0 
  2  6  1  0  0  0  0 
  2  7  1  0  0  0  0 
  3  5  1  0  0  0  0 
  3  7  2  0  0  0  0 
  4  5  1  0  0  0  0 
  4 15  1  0  0  0  0 
  4 16  1  0  0  0  0 
  5  9  1  1  0  0  0 
  5 17  1  0  0  0  0 
  6  8  1  0  0  0  0 
  6 18  1  0  0  0  0 
  6 19  1  0  0  0  0 
  8 20  1  0  0  0  0 
  8 21  1  0  0  0  0 
  9 10  2  0  0  0  0 
  9 11  1  0  0  0  0 
 10 12  1  0  0  0  0 
 10 22  1  0  0  0  0 
 11 13  2  0  0  0  0 
 11 23  1  0  0  0  0 
 12 14  2  0  0  0  0 
 12 24  1  0  0  0  0 
 13 14  1  0  0  0  0 
 13 25  1  0  0  0  0 
 14 26  1  0  0  0  0 
M  END
> <cdk:Title>
26879

> <cdk:Remark>
null

> <PUBCHEM_COMPOUND_CID>
26879

> <PUBCHEM_COMPOUND_CANONICALIZED>
1

> <PUBCHEM_CACTVS_COMPLEXITY>
246

> <PUBCHEM_CACTVS_HBOND_ACCEPTOR>
2

> <PUBCHEM_CACTVS_HBOND_DONOR>
0

> <PUBCHEM_CACTVS_ROTATABLE_BOND>
1

> <PUBCHEM_CACTVS_SUBSKEYS>
AAADccBzAABAAAAAAAAAAAAAAAAAAWIAAAAwAAAAAAAQAAABAAAAHAQAAAAADCjFWASxAIMAAAigAiBCJACCEAFgABAJiAAIBIgIYCKAmRGUIABggACIiAcQgIAOAAAAAAAAAAAAAAAAAAAAAAAAAAAAAA==

> <PUBCHEM_IUPAC_OPENEYE_NAME>
(6S)-6-phenyl-2,3,5,6-tetrahydroimidazo[2,1-b]thiazole

> <PUBCHEM_IUPAC_CAS_NAME>
(6S)-6-phenyl-2,3,5,6-tetrahydroimidazo[2,1-b]thiazole

> <PUBCHEM_IUPAC_NAME>
(6S)-6-phenyl-2,3,5,6-tetrahydroimidazo[2,1-b][1,3]thiazole

> <PUBCHEM_IUPAC_SYSTEMATIC_NAME>
(6S)-6-phenyl-2,3,5,6-tetrahydroimidazo[2,1-b][1,3]thiazole

> <PUBCHEM_IUPAC_TRADITIONAL_NAME>
(6S)-6-phenyl-2,3,5,6-tetrahydroimidazo[2,1-b]thiazole

> <PUBCHEM_IUPAC_INCHI>
InChI=1S/C11H12N2S/c1-2-4-9(5-3-1)10-8-13-6-7-14-11(13)12-10/h1-5,10H,6-8H2/t10-/m1/s1

> <PUBCHEM_IUPAC_INCHIKEY>
HLFSDGLLUJUHTE-SNVBAGLBSA-N

> <PUBCHEM_XLOGP3>
1.8

> <PUBCHEM_EXACT_MASS>
204.072119

> <PUBCHEM_MOLECULAR_FORMULA>
C11H12N2S

> <PUBCHEM_MOLECULAR_WEIGHT>
204.29138

> <PUBCHEM_OPENEYE_CAN_SMILES>
C1CSC2=NC(CN21)C3=CC=CC=C3

> <PUBCHEM_OPENEYE_ISO_SMILES>
C1CSC2=N[C@H](CN21)C3=CC=CC=C3

> <PUBCHEM_CACTVS_TPSA>
40.9

> <PUBCHEM_MONOISOTOPIC_WEIGHT>
204.072119

> <PUBCHEM_TOTAL_CHARGE>
0

> <PUBCHEM_HEAVY_ATOM_COUNT>
14

> <PUBCHEM_ATOM_DEF_STEREO_COUNT>
1

> <PUBCHEM_ATOM_UDEF_STEREO_COUNT>
0

> <PUBCHEM_BOND_DEF_STEREO_COUNT>
0

> <PUBCHEM_BOND_UDEF_STEREO_COUNT>
0

> <PUBCHEM_ISOTOPIC_ATOM_COUNT>
0

> <PUBCHEM_COMPONENT_COUNT>
1

> <PUBCHEM_CACTVS_TAUTO_COUNT>
1

> <PUBCHEM_COORDINATE_TYPE>
1
5
255

> <PUBCHEM_BONDANNOTATIONS>
10  12  8
11  13  8
12  14  8
13  14  8
5  9  5
9  10  8
9  11  8

> <DRUG_ID>
w51

> <DRUG_NAME>
Levamisole

$$$$
4098
  CDK     0927151942
null
 37 38  0  0  0  0  0  0  0  0999 V2000
    3.4782   -0.4945    0.0000 S   0  0  0  0  0  0  0  0  0  0  0  0
    5.3147    0.5000    0.0000 N   0  0  3  0  0  0  0  0  0  0  0  0
    6.1808   -2.0000    0.0000 N   0  0  0  0  0  0  0  0  0  0  0  0
    7.0468    0.5000    0.0000 N   0  0  0  0  0  0  0  0  0  0  0  0
    5.3147   -0.5000    0.0000 C   0  0  0  0  0  0  0  0  0  0  0  0
    6.1808   -1.0000    0.0000 C   0  0  0  0  0  0  0  0  0  0  0  0
    4.4487    1.0000    0.0000 C   0  0  0  0  0  0  0  0  0  0  0  0
    6.1808    1.0000    0.0000 C   0  0  0  0  0  0  0  0  0  0  0  0
    3.5827    0.5000    0.0000 C   0  0  0  0  0  0  0  0  0  0  0  0
    7.0468   -2.5000    0.0000 C   0  0  0  0  0  0  0  0  0  0  0  0
    5.3147   -2.5000    0.0000 C   0  0  0  0  0  0  0  0  0  0  0  0
    6.1808    2.0000    0.0000 C   0  0  0  0  0  0  0  0  0  0  0  0
    2.6691    0.9067    0.0000 C   0  0  0  0  0  0  0  0  0  0  0  0
    2.0000    0.1636    0.0000 C   0  0  0  0  0  0  0  0  0  0  0  0
    7.0468    2.5000    0.0000 C   0  0  0  0  0  0  0  0  0  0  0  0
    2.5000   -0.7024    0.0000 C   0  0  0  0  0  0  0  0  0  0  0  0
    7.9128    1.0000    0.0000 C   0  0  0  0  0  0  0  0  0  0  0  0
    7.9128    2.0000    0.0000 C   0  0  0  0  0  0  0  0  0  0  0  0
    4.7042   -0.3923    0.0000 H   0  0  0  0  0  0  0  0  0  0  0  0
    5.1027   -1.0826    0.0000 H   0  0  0  0  0  0  0  0  0  0  0  0
    6.7913   -1.1077    0.0000 H   0  0  0  0  0  0  0  0  0  0  0  0
    6.3928   -0.4174    0.0000 H   0  0  0  0  0  0  0  0  0  0  0  0
    4.8472    1.4750    0.0000 H   0  0  0  0  0  0  0  0  0  0  0  0
    4.0502    1.4750    0.0000 H   0  0  0  0  0  0  0  0  0  0  0  0
    5.0047   -1.9631    0.0000 H   0  0  0  0  0  0  0  0  0  0  0  0
    4.7778   -2.8100    0.0000 H   0  0  0  0  0  0  0  0  0  0  0  0
    5.6247   -3.0369    0.0000 H   0  0  0  0  0  0  0  0  0  0  0  0
    6.7368   -3.0369    0.0000 H   0  0  0  0  0  0  0  0  0  0  0  0
    7.5837   -2.8100    0.0000 H   0  0  0  0  0  0  0  0  0  0  0  0
    7.3568   -1.9631    0.0000 H   0  0  0  0  0  0  0  0  0  0  0  0
    5.6438    2.3100    0.0000 H   0  0  0  0  0  0  0  0  0  0  0  0
    2.5402    1.5132    0.0000 H   0  0  0  0  0  0  0  0  0  0  0  0
    1.3834    0.2284    0.0000 H   0  0  0  0  0  0  0  0  0  0  0  0
    7.0468    3.1200    0.0000 H   0  0  0  0  0  0  0  0  0  0  0  0
    2.2478   -1.2688    0.0000 H   0  0  0  0  0  0  0  0  0  0  0  0
    8.4497    0.6900    0.0000 H   0  0  0  0  0  0  0  0  0  0  0  0
    8.4497    2.3100    0.0000 H   0  0  0  0  0  0  0  0  0  0  0  0
  1  9  1  0  0  0  0 
  1 16  1  0  0  0  0 
  2  5  1  0  0  0  0 
  2  7  1  0  0  0  0 
  2  8  1  0  0  0  0 
  3  6  1  0  0  0  0 
  3 10  1  0  0  0  0 
  3 11  1  0  0  0  0 
  4  8  1  0  0  0  0 
  4 17  2  0  0  0  0 
  5  6  1  0  0  0  0 
  5 19  1  0  0  0  0 
  5 20  1  0  0  0  0 
  6 21  1  0  0  0  0 
  6 22  1  0  0  0  0 
  7  9  1  0  0  0  0 
  7 23  1  0  0  0  0 
  7 24  1  0  0  0  0 
  8 12  2  0  0  0  0 
  9 13  2  0  0  0  0 
 10 28  1  0  0  0  0 
 10 29  1  0  0  0  0 
 10 30  1  0  0  0  0 
 11 25  1  0  0  0  0 
 11 26  1  0  0  0  0 
 11 27  1  0  0  0  0 
 12 15  1  0  0  0  0 
 12 31  1  0  0  0  0 
 13 14  1  0  0  0  0 
 13 32  1  0  0  0  0 
 14 16  2  0  0  0  0 
 14 33  1  0  0  0  0 
 15 18  2  0  0  0  0 
 15 34  1  0  0  0  0 
 16 35  1  0  0  0  0 
 17 18  1  0  0  0  0 
 17 36  1  0  0  0  0 
 18 37  1  0  0  0  0 
M  END
> <cdk:Title>
4098

> <cdk:Remark>
null

> <PUBCHEM_COMPOUND_CID>
4098

> <PUBCHEM_COMPOUND_CANONICALIZED>
1

> <PUBCHEM_CACTVS_COMPLEXITY>
235

> <PUBCHEM_CACTVS_HBOND_ACCEPTOR>
4

> <PUBCHEM_CACTVS_HBOND_DONOR>
0

> <PUBCHEM_CACTVS_ROTATABLE_BOND>
6

> <PUBCHEM_CACTVS_SUBSKEYS>
AAADceBzAABAAAAAAAAAAAAAAAAAASAAAAAsAAAAAAAAAAAB4AAAHAQAAAAACADFUgS/sZMIEAikADJnZACDgKkxCjBJ2Dg4ZJiIYOLgmZGUIAhogALoyCYQAAAAAAAAAAAAAAAAAAAAAAAAAAAAAAAAAA==

> <PUBCHEM_IUPAC_OPENEYE_NAME>
N,N-dimethyl-N'-(2-pyridyl)-N'-(2-thienylmethyl)ethane-1,2-diamine

> <PUBCHEM_IUPAC_CAS_NAME>
N,N-dimethyl-N'-(2-pyridinyl)-N'-(thiophen-2-ylmethyl)ethane-1,2-diamine

> <PUBCHEM_IUPAC_NAME>
N,N-dimethyl-N'-pyridin-2-yl-N'-(thiophen-2-ylmethyl)ethane-1,2-diamine

> <PUBCHEM_IUPAC_SYSTEMATIC_NAME>
N,N-dimethyl-N'-pyridin-2-yl-N'-(thiophen-2-ylmethyl)ethane-1,2-diamine

> <PUBCHEM_IUPAC_TRADITIONAL_NAME>
dimethyl-[2-[2-pyridyl(2-thenyl)amino]ethyl]amine

> <PUBCHEM_IUPAC_INCHI>
InChI=1S/C14H19N3S/c1-16(2)9-10-17(12-13-6-5-11-18-13)14-7-3-4-8-15-14/h3-8,11H,9-10,12H2,1-2H3

> <PUBCHEM_IUPAC_INCHIKEY>
HNJJXZKZRAWDPF-UHFFFAOYSA-N

> <PUBCHEM_XLOGP3_AA>
2.6

> <PUBCHEM_EXACT_MASS>
261.129969

> <PUBCHEM_MOLECULAR_FORMULA>
C14H19N3S

> <PUBCHEM_MOLECULAR_WEIGHT>
261.38576

> <PUBCHEM_OPENEYE_CAN_SMILES>
CN(C)CCN(CC1=CC=CS1)C2=CC=CC=N2

> <PUBCHEM_OPENEYE_ISO_SMILES>
CN(C)CCN(CC1=CC=CS1)C2=CC=CC=N2

> <PUBCHEM_CACTVS_TPSA>
47.6

> <PUBCHEM_MONOISOTOPIC_WEIGHT>
261.129969

> <PUBCHEM_TOTAL_CHARGE>
0

> <PUBCHEM_HEAVY_ATOM_COUNT>
18

> <PUBCHEM_ATOM_DEF_STEREO_COUNT>
0

> <PUBCHEM_ATOM_UDEF_STEREO_COUNT>
0

> <PUBCHEM_BOND_DEF_STEREO_COUNT>
0

> <PUBCHEM_BOND_UDEF_STEREO_COUNT>
0

> <PUBCHEM_ISOTOPIC_ATOM_COUNT>
0

> <PUBCHEM_COMPONENT_COUNT>
1

> <PUBCHEM_CACTVS_TAUTO_COUNT>
1

> <PUBCHEM_COORDINATE_TYPE>
1
5
255

> <PUBCHEM_BONDANNOTATIONS>
1  16  8
1  9  8
12  15  8
13  14  8
14  16  8
15  18  8
17  18  8
4  17  8
4  8  8
8  12  8
9  13  8

> <DRUG_ID>
w52

> <DRUG_NAME>
Methapyrilene

$$$$
5282375
  CDK     0927151942
null
 56 56  0  0  0  0  0  0  0  0999 V2000
    3.7320   -5.7500    0.0000 O   0  0  0  0  0  0  0  0  0  0  0  0
    8.0622    4.7500    0.0000 O   0  0  0  0  0  0  0  0  0  0  0  0
    6.3301    4.7500    0.0000 O   0  0  0  0  0  0  0  0  0  0  0  0
    2.8660   -3.2500    0.0000 C   0  0  0  0  0  0  0  0  0  0  0  0
    3.7320   -2.7500    0.0000 C   0  0  0  0  0  0  0  0  0  0  0  0
    2.8660   -4.2500    0.0000 C   0  0  0  0  0  0  0  0  0  0  0  0
    4.5981   -3.2500    0.0000 C   0  0  0  0  0  0  0  0  0  0  0  0
    3.7320   -4.7500    0.0000 C   0  0  0  0  0  0  0  0  0  0  0  0
    4.5981   -4.2500    0.0000 C   0  0  0  0  0  0  0  0  0  0  0  0
    2.0000   -2.7500    0.0000 C   0  0  0  0  0  0  0  0  0  0  0  0
    3.7320   -1.7500    0.0000 C   0  0  0  0  0  0  0  0  0  0  0  0
    2.0000   -4.7500    0.0000 C   0  0  0  0  0  0  0  0  0  0  0  0
    5.4641   -2.7500    0.0000 C   0  0  0  0  0  0  0  0  0  0  0  0
    4.5981   -1.2500    0.0000 C   0  0  0  0  0  0  0  0  0  0  0  0
    4.5981   -0.2500    0.0000 C   0  0  0  0  0  0  0  0  0  0  0  0
    4.5981   -6.2500    0.0000 C   0  0  0  0  0  0  0  0  0  0  0  0
    3.7320    0.2500    0.0000 C   0  0  0  0  0  0  0  0  0  0  0  0
    5.4641    0.2500    0.0000 C   0  0  0  0  0  0  0  0  0  0  0  0
    5.4641    1.2500    0.0000 C   0  0  0  0  0  0  0  0  0  0  0  0
    6.3301    1.7500    0.0000 C   0  0  0  0  0  0  0  0  0  0  0  0
    6.3301    2.7500    0.0000 C   0  0  0  0  0  0  0  0  0  0  0  0
    5.4641    3.2500    0.0000 C   0  0  0  0  0  0  0  0  0  0  0  0
    7.1962    3.2500    0.0000 C   0  0  0  0  0  0  0  0  0  0  0  0
    7.1962    4.2500    0.0000 C   0  0  0  0  0  0  0  0  0  0  0  0
    8.0622    5.7500    0.0000 C   0  0  0  0  0  0  0  0  0  0  0  0
    8.9282    6.2500    0.0000 C   0  0  0  0  0  0  0  0  0  0  0  0
    5.1350   -4.5600    0.0000 H   0  0  0  0  0  0  0  0  0  0  0  0
    2.3100   -2.2131    0.0000 H   0  0  0  0  0  0  0  0  0  0  0  0
    1.4631   -2.4400    0.0000 H   0  0  0  0  0  0  0  0  0  0  0  0
    1.6900   -3.2869    0.0000 H   0  0  0  0  0  0  0  0  0  0  0  0
    3.1951   -1.4400    0.0000 H   0  0  0  0  0  0  0  0  0  0  0  0
    1.6900   -4.2131    0.0000 H   0  0  0  0  0  0  0  0  0  0  0  0
    1.4631   -5.0600    0.0000 H   0  0  0  0  0  0  0  0  0  0  0  0
    2.3100   -5.2869    0.0000 H   0  0  0  0  0  0  0  0  0  0  0  0
    5.7741   -3.2869    0.0000 H   0  0  0  0  0  0  0  0  0  0  0  0
    6.0010   -2.4400    0.0000 H   0  0  0  0  0  0  0  0  0  0  0  0
    5.1541   -2.2131    0.0000 H   0  0  0  0  0  0  0  0  0  0  0  0
    5.1350   -1.5600    0.0000 H   0  0  0  0  0  0  0  0  0  0  0  0
    4.2881   -6.7869    0.0000 H   0  0  0  0  0  0  0  0  0  0  0  0
    5.1350   -6.5600    0.0000 H   0  0  0  0  0  0  0  0  0  0  0  0
    4.9081   -5.7131    0.0000 H   0  0  0  0  0  0  0  0  0  0  0  0
    4.0420    0.7869    0.0000 H   0  0  0  0  0  0  0  0  0  0  0  0
    3.1951    0.5600    0.0000 H   0  0  0  0  0  0  0  0  0  0  0  0
    3.4220   -0.2869    0.0000 H   0  0  0  0  0  0  0  0  0  0  0  0
    6.0010   -0.0600    0.0000 H   0  0  0  0  0  0  0  0  0  0  0  0
    4.9272    1.5600    0.0000 H   0  0  0  0  0  0  0  0  0  0  0  0
    6.8671    1.4400    0.0000 H   0  0  0  0  0  0  0  0  0  0  0  0
    5.7741    3.7869    0.0000 H   0  0  0  0  0  0  0  0  0  0  0  0
    4.9272    3.5600    0.0000 H   0  0  0  0  0  0  0  0  0  0  0  0
    5.1541    2.7131    0.0000 H   0  0  0  0  0  0  0  0  0  0  0  0
    7.7331    2.9400    0.0000 H   0  0  0  0  0  0  0  0  0  0  0  0
    7.8501    6.3326    0.0000 H   0  0  0  0  0  0  0  0  0  0  0  0
    7.4516    5.6423    0.0000 H   0  0  0  0  0  0  0  0  0  0  0  0
    9.2382    5.7131    0.0000 H   0  0  0  0  0  0  0  0  0  0  0  0
    9.4651    6.5600    0.0000 H   0  0  0  0  0  0  0  0  0  0  0  0
    8.6182    6.7869    0.0000 H   0  0  0  0  0  0  0  0  0  0  0  0
  1  8  1  0  0  0  0 
  1 16  1  0  0  0  0 
  2 24  1  0  0  0  0 
  2 25  1  0  0  0  0 
  3 24  2  0  0  0  0 
  4  5  2  0  0  0  0 
  4  6  1  0  0  0  0 
  4 10  1  0  0  0  0 
  5  7  1  0  0  0  0 
  5 11  1  0  0  0  0 
  6  8  2  0  0  0  0 
  6 12  1  0  0  0  0 
  7  9  2  0  0  0  0 
  7 13  1  0  0  0  0 
  8  9  1  0  0  0  0 
  9 27  1  0  0  0  0 
 10 28  1  0  0  0  0 
 10 29  1  0  0  0  0 
 10 30  1  0  0  0  0 
 11 14  2  0  0  0  0 
 11 31  1  0  0  0  0 
 12 32  1  0  0  0  0 
 12 33  1  0  0  0  0 
 12 34  1  0  0  0  0 
 13 35  1  0  0  0  0 
 13 36  1  0  0  0  0 
 13 37  1  0  0  0  0 
 14 15  1  0  0  0  0 
 14 38  1  0  0  0  0 
 15 17  1  0  0  0  0 
 15 18  2  0  0  0  0 
 16 39  1  0  0  0  0 
 16 40  1  0  0  0  0 
 16 41  1  0  0  0  0 
 17 42  1  0  0  0  0 
 17 43  1  0  0  0  0 
 17 44  1  0  0  0  0 
 18 19  1  0  0  0  0 
 18 45  1  0  0  0  0 
 19 20  2  0  0  0  0 
 19 46  1  0  0  0  0 
 20 21  1  0  0  0  0 
 20 47  1  0  0  0  0 
 21 22  1  0  0  0  0 
 21 23  2  0  0  0  0 
 22 48  1  0  0  0  0 
 22 49  1  0  0  0  0 
 22 50  1  0  0  0  0 
 23 24  1  0  0  0  0 
 23 51  1  0  0  0  0 
 25 26  1  0  0  0  0 
 25 52  1  0  0  0  0 
 25 53  1  0  0  0  0 
 26 54  1  0  0  0  0 
 26 55  1  0  0  0  0 
 26 56  1  0  0  0  0 
M  END
> <cdk:Title>
5282375

> <cdk:Remark>
null

> <PUBCHEM_COMPOUND_CID>
5282375

> <PUBCHEM_COMPOUND_CANONICALIZED>
1

> <PUBCHEM_CACTVS_COMPLEXITY>
568

> <PUBCHEM_CACTVS_HBOND_ACCEPTOR>
3

> <PUBCHEM_CACTVS_HBOND_DONOR>
0

> <PUBCHEM_CACTVS_ROTATABLE_BOND>
8

> <PUBCHEM_CACTVS_SUBSKEYS>
AAADceB4MAAAAAAAAAAAAAAAAAAAAAAAAAAwAAAAAAAAAAABAAAAGgAAAAAADASgmAIyDoAABACIAiDSCAACCAAgIAAIiAAGCMgMJiKEMRqCMCAkwBEIqQeAwPAO4AADAAAYAADAAAYAADAAAAAAAAAAAA==

> <PUBCHEM_IUPAC_OPENEYE_NAME>
ethyl (2E,4E,6E,8E)-9-(4-methoxy-2,3,6-trimethyl-phenyl)-3,7-dimethyl-nona-2,4,6,8-tetraenoate

> <PUBCHEM_IUPAC_CAS_NAME>
(2E,4E,6E,8E)-9-(4-methoxy-2,3,6-trimethylphenyl)-3,7-dimethylnona-2,4,6,8-tetraenoic acid ethyl ester

> <PUBCHEM_IUPAC_NAME>
ethyl (2E,4E,6E,8E)-9-(4-methoxy-2,3,6-trimethylphenyl)-3,7-dimethylnona-2,4,6,8-tetraenoate

> <PUBCHEM_IUPAC_SYSTEMATIC_NAME>
ethyl (2E,4E,6E,8E)-9-(4-methoxy-2,3,6-trimethyl-phenyl)-3,7-dimethyl-nona-2,4,6,8-tetraenoate

> <PUBCHEM_IUPAC_TRADITIONAL_NAME>
(2E,4E,6E,8E)-9-(4-methoxy-2,3,6-trimethyl-phenyl)-3,7-dimethyl-nona-2,4,6,8-tetraenoic acid ethyl ester

> <PUBCHEM_IUPAC_INCHI>
InChI=1S/C23H30O3/c1-8-26-23(24)14-17(3)11-9-10-16(2)12-13-21-18(4)15-22(25-7)20(6)19(21)5/h9-15H,8H2,1-7H3/b11-9+,13-12+,16-10+,17-14+

> <PUBCHEM_IUPAC_INCHIKEY>
HQMNCQVAMBCHCO-DJRRULDNSA-N

> <PUBCHEM_XLOGP3_AA>
6.8

> <PUBCHEM_EXACT_MASS>
354.219495

> <PUBCHEM_MOLECULAR_FORMULA>
C23H30O3

> <PUBCHEM_MOLECULAR_WEIGHT>
354.4825

> <PUBCHEM_OPENEYE_CAN_SMILES>
CCOC(=O)C=C(C)C=CC=C(C)C=CC1=C(C(=C(C=C1C)OC)C)C

> <PUBCHEM_OPENEYE_ISO_SMILES>
CCOC(=O)/C=C(\C)/C=C/C=C(\C)/C=C/C1=C(C(=C(C=C1C)OC)C)C

> <PUBCHEM_CACTVS_TPSA>
35.5

> <PUBCHEM_MONOISOTOPIC_WEIGHT>
354.219495

> <PUBCHEM_TOTAL_CHARGE>
0

> <PUBCHEM_HEAVY_ATOM_COUNT>
26

> <PUBCHEM_ATOM_DEF_STEREO_COUNT>
0

> <PUBCHEM_ATOM_UDEF_STEREO_COUNT>
0

> <PUBCHEM_BOND_DEF_STEREO_COUNT>
4

> <PUBCHEM_BOND_UDEF_STEREO_COUNT>
0

> <PUBCHEM_ISOTOPIC_ATOM_COUNT>
0

> <PUBCHEM_COMPONENT_COUNT>
1

> <PUBCHEM_CACTVS_TAUTO_COUNT>
1

> <PUBCHEM_COORDINATE_TYPE>
1
5
255

> <PUBCHEM_BONDANNOTATIONS>
4  5  8
4  6  8
5  7  8
6  8  8
7  9  8
8  9  8

> <DRUG_ID>
w53

> <DRUG_NAME>
Etretinate

$$$$
4930
  CDK     0927151942
null
 36 37  0  0  0  0  0  0  0  0999 V2000
    5.4641   -1.3623    0.0000 O   0  0  0  0  0  0  0  0  0  0  0  0
    3.7320   -0.3623    0.0000 N   0  0  0  0  0  0  0  0  0  0  0  0
    5.4641   -0.3623    0.0000 C   0  0  3  0  0  0  0  0  0  0  0  0
    4.5981    0.1377    0.0000 C   0  0  0  0  0  0  0  0  0  0  0  0
    6.3301    0.1377    0.0000 C   0  0  0  0  0  0  0  0  0  0  0  0
    2.8660    0.1377    0.0000 C   0  0  0  0  0  0  0  0  0  0  0  0
    7.1962   -0.3623    0.0000 C   0  0  0  0  0  0  0  0  0  0  0  0
    8.0622    0.1377    0.0000 C   0  0  0  0  0  0  0  0  0  0  0  0
    6.3301    1.1377    0.0000 C   0  0  0  0  0  0  0  0  0  0  0  0
    8.0622    1.1377    0.0000 C   0  0  0  0  0  0  0  0  0  0  0  0
    2.0000   -0.3623    0.0000 C   0  0  0  0  0  0  0  0  0  0  0  0
    2.8660    1.1377    0.0000 C   0  0  0  0  0  0  0  0  0  0  0  0
    7.1962    1.6377    0.0000 C   0  0  0  0  0  0  0  0  0  0  0  0
    8.9561   -0.3970    0.0000 C   0  0  0  0  0  0  0  0  0  0  0  0
    8.9561    1.6723    0.0000 C   0  0  0  0  0  0  0  0  0  0  0  0
    9.8622    0.1169    0.0000 C   0  0  0  0  0  0  0  0  0  0  0  0
    9.8622    1.1585    0.0000 C   0  0  0  0  0  0  0  0  0  0  0  0
    6.0010   -0.6723    0.0000 H   0  0  0  0  0  0  0  0  0  0  0  0
    4.9966    0.6126    0.0000 H   0  0  0  0  0  0  0  0  0  0  0  0
    4.1996    0.6126    0.0000 H   0  0  0  0  0  0  0  0  0  0  0  0
    2.8660   -0.4823    0.0000 H   0  0  0  0  0  0  0  0  0  0  0  0
    3.7320   -0.9823    0.0000 H   0  0  0  0  0  0  0  0  0  0  0  0
    7.1962   -0.9823    0.0000 H   0  0  0  0  0  0  0  0  0  0  0  0
    5.7932    1.4477    0.0000 H   0  0  0  0  0  0  0  0  0  0  0  0
    3.4860    1.1377    0.0000 H   0  0  0  0  0  0  0  0  0  0  0  0
    1.6900    0.1746    0.0000 H   0  0  0  0  0  0  0  0  0  0  0  0
    1.4631   -0.6723    0.0000 H   0  0  0  0  0  0  0  0  0  0  0  0
    2.3100   -0.8993    0.0000 H   0  0  0  0  0  0  0  0  0  0  0  0
    2.8660    1.7577    0.0000 H   0  0  0  0  0  0  0  0  0  0  0  0
    2.2460    1.1377    0.0000 H   0  0  0  0  0  0  0  0  0  0  0  0
    7.1962    2.2577    0.0000 H   0  0  0  0  0  0  0  0  0  0  0  0
    8.9490   -1.0170    0.0000 H   0  0  0  0  0  0  0  0  0  0  0  0
    4.9272   -1.6723    0.0000 H   0  0  0  0  0  0  0  0  0  0  0  0
    8.9490    2.2923    0.0000 H   0  0  0  0  0  0  0  0  0  0  0  0
   10.3979   -0.1952    0.0000 H   0  0  0  0  0  0  0  0  0  0  0  0
   10.3979    1.4706    0.0000 H   0  0  0  0  0  0  0  0  0  0  0  0
  1  3  1  0  0  0  0 
  1 33  1  0  0  0  0 
  2  4  1  0  0  0  0 
  2  6  1  0  0  0  0 
  2 22  1  0  0  0  0 
  3  4  1  0  0  0  0 
  3  5  1  0  0  0  0 
  3 18  1  0  0  0  0 
  4 19  1  0  0  0  0 
  4 20  1  0  0  0  0 
  5  7  2  0  0  0  0 
  5  9  1  0  0  0  0 
  6 11  1  0  0  0  0 
  6 12  1  0  0  0  0 
  6 21  1  0  0  0  0 
  7  8  1  0  0  0  0 
  7 23  1  0  0  0  0 
  8 10  1  0  0  0  0 
  8 14  2  0  0  0  0 
  9 13  2  0  0  0  0 
  9 24  1  0  0  0  0 
 10 13  1  0  0  0  0 
 10 15  2  0  0  0  0 
 11 26  1  0  0  0  0 
 11 27  1  0  0  0  0 
 11 28  1  0  0  0  0 
 12 25  1  0  0  0  0 
 12 29  1  0  0  0  0 
 12 30  1  0  0  0  0 
 13 31  1  0  0  0  0 
 14 16  1  0  0  0  0 
 14 32  1  0  0  0  0 
 15 17  1  0  0  0  0 
 15 34  1  0  0  0  0 
 16 17  2  0  0  0  0 
 16 35  1  0  0  0  0 
 17 36  1  0  0  0  0 
M  END
> <cdk:Title>
4930

> <cdk:Remark>
null

> <PUBCHEM_COMPOUND_CID>
4930

> <PUBCHEM_COMPOUND_CANONICALIZED>
1

> <PUBCHEM_CACTVS_COMPLEXITY>
229

> <PUBCHEM_CACTVS_HBOND_ACCEPTOR>
2

> <PUBCHEM_CACTVS_HBOND_DONOR>
2

> <PUBCHEM_CACTVS_ROTATABLE_BOND>
4

> <PUBCHEM_CACTVS_SUBSKEYS>
AAADceByIAAAAAAAAAAAAAAAAAAAAAAAAAAwYAAAAAAAAADBUAAAHgAQCAAADDzhmAYyAMLAAgCAAiBCAAACAAAgAAAIiIAICIgKNiKAkRGEcAAk0AGYmAeQwPAOwAACAAAQAACAAAQAACAAAAAAAAAAAA==

> <PUBCHEM_IUPAC_OPENEYE_NAME>
2-(isopropylamino)-1-(2-naphthyl)ethanol

> <PUBCHEM_IUPAC_CAS_NAME>
1-(2-naphthalenyl)-2-(propan-2-ylamino)ethanol

> <PUBCHEM_IUPAC_NAME>
1-naphthalen-2-yl-2-(propan-2-ylamino)ethanol

> <PUBCHEM_IUPAC_SYSTEMATIC_NAME>
1-naphthalen-2-yl-2-(propan-2-ylamino)ethanol

> <PUBCHEM_IUPAC_TRADITIONAL_NAME>
2-(isopropylamino)-1-(2-naphthyl)ethanol

> <PUBCHEM_IUPAC_INCHI>
InChI=1S/C15H19NO/c1-11(2)16-10-15(17)14-8-7-12-5-3-4-6-13(12)9-14/h3-9,11,15-17H,10H2,1-2H3

> <PUBCHEM_IUPAC_INCHIKEY>
HRSANNODOVBCST-UHFFFAOYSA-N

> <PUBCHEM_XLOGP3>
3

> <PUBCHEM_EXACT_MASS>
229.146664

> <PUBCHEM_MOLECULAR_FORMULA>
C15H19NO

> <PUBCHEM_MOLECULAR_WEIGHT>
229.31746

> <PUBCHEM_OPENEYE_CAN_SMILES>
CC(C)NCC(C1=CC2=CC=CC=C2C=C1)O

> <PUBCHEM_OPENEYE_ISO_SMILES>
CC(C)NCC(C1=CC2=CC=CC=C2C=C1)O

> <PUBCHEM_CACTVS_TPSA>
32.3

> <PUBCHEM_MONOISOTOPIC_WEIGHT>
229.146664

> <PUBCHEM_TOTAL_CHARGE>
0

> <PUBCHEM_HEAVY_ATOM_COUNT>
17

> <PUBCHEM_ATOM_DEF_STEREO_COUNT>
0

> <PUBCHEM_ATOM_UDEF_STEREO_COUNT>
1

> <PUBCHEM_BOND_DEF_STEREO_COUNT>
0

> <PUBCHEM_BOND_UDEF_STEREO_COUNT>
0

> <PUBCHEM_ISOTOPIC_ATOM_COUNT>
0

> <PUBCHEM_COMPONENT_COUNT>
1

> <PUBCHEM_CACTVS_TAUTO_COUNT>
1

> <PUBCHEM_COORDINATE_TYPE>
1
5
255

> <PUBCHEM_BONDANNOTATIONS>
3  1  3
10  13  8
10  15  8
14  16  8
15  17  8
16  17  8
5  7  8
5  9  8
7  8  8
8  10  8
8  14  8
9  13  8

> <DRUG_ID>
w54

> <DRUG_NAME>
Pronetalol

$$$$
4485
  CDK     0927151942
null
 43 44  0  0  0  0  0  0  0  0999 V2000
    2.8660   -0.6900    0.0000 O   0  0  0  0  0  0  0  0  0  0  0  0
    8.0622   -0.6900    0.0000 O   0  0  0  0  0  0  0  0  0  0  0  0
    3.7320    0.8100    0.0000 O   0  0  0  0  0  0  0  0  0  0  0  0
    8.0622    0.3100    0.0000 O   0  0  0  0  0  0  0  0  0  0  0  0
    7.1962    2.8100    0.0000 O   0  0  0  0  0  0  0  0  0  0  0  0
    8.0622    1.3100    0.0000 O   0  0  0  0  0  0  0  0  0  0  0  0
    5.4641   -2.1900    0.0000 N   0  0  0  0  0  0  0  0  0  0  0  0
    7.1962    1.8100    0.0000 N   0  0  0  0  0  0  0  0  0  0  0  0
    5.4641   -0.1900    0.0000 C   0  0  0  0  0  0  0  0  0  0  0  0
    6.3301   -0.6900    0.0000 C   0  0  0  0  0  0  0  0  0  0  0  0
    4.5981   -0.6900    0.0000 C   0  0  0  0  0  0  0  0  0  0  0  0
    5.4641    0.8100    0.0000 C   0  0  0  0  0  0  0  0  0  0  0  0
    6.3301   -1.6900    0.0000 C   0  0  0  0  0  0  0  0  0  0  0  0
    4.5981   -1.6900    0.0000 C   0  0  0  0  0  0  0  0  0  0  0  0
    6.3301    1.3100    0.0000 C   0  0  0  0  0  0  0  0  0  0  0  0
    4.5981    1.3100    0.0000 C   0  0  0  0  0  0  0  0  0  0  0  0
    7.1962   -0.1900    0.0000 C   0  0  0  0  0  0  0  0  0  0  0  0
    3.7320   -0.1900    0.0000 C   0  0  0  0  0  0  0  0  0  0  0  0
    3.7320   -2.1900    0.0000 C   0  0  0  0  0  0  0  0  0  0  0  0
    7.1962   -2.1900    0.0000 C   0  0  0  0  0  0  0  0  0  0  0  0
    6.3301    2.3100    0.0000 C   0  0  0  0  0  0  0  0  0  0  0  0
    4.5981    2.3100    0.0000 C   0  0  0  0  0  0  0  0  0  0  0  0
    5.4641    2.8100    0.0000 C   0  0  0  0  0  0  0  0  0  0  0  0
    8.9282   -0.1900    0.0000 C   0  0  0  0  0  0  0  0  0  0  0  0
    2.0000   -0.1900    0.0000 C   0  0  0  0  0  0  0  0  0  0  0  0
    6.0010    0.1200    0.0000 H   0  0  0  0  0  0  0  0  0  0  0  0
    5.4641   -2.8100    0.0000 H   0  0  0  0  0  0  0  0  0  0  0  0
    4.0611    1.0000    0.0000 H   0  0  0  0  0  0  0  0  0  0  0  0
    6.8862   -2.7269    0.0000 H   0  0  0  0  0  0  0  0  0  0  0  0
    3.4220   -1.6531    0.0000 H   0  0  0  0  0  0  0  0  0  0  0  0
    3.1951   -2.5000    0.0000 H   0  0  0  0  0  0  0  0  0  0  0  0
    4.0420   -2.7269    0.0000 H   0  0  0  0  0  0  0  0  0  0  0  0
    7.7331   -2.5000    0.0000 H   0  0  0  0  0  0  0  0  0  0  0  0
    7.5062   -1.6531    0.0000 H   0  0  0  0  0  0  0  0  0  0  0  0
    6.8671    2.6200    0.0000 H   0  0  0  0  0  0  0  0  0  0  0  0
    4.0611    2.6200    0.0000 H   0  0  0  0  0  0  0  0  0  0  0  0
    5.4641    3.4300    0.0000 H   0  0  0  0  0  0  0  0  0  0  0  0
    2.3100    0.3469    0.0000 H   0  0  0  0  0  0  0  0  0  0  0  0
    1.4631    0.1200    0.0000 H   0  0  0  0  0  0  0  0  0  0  0  0
    1.6900   -0.7269    0.0000 H   0  0  0  0  0  0  0  0  0  0  0  0
    9.2382   -0.7269    0.0000 H   0  0  0  0  0  0  0  0  0  0  0  0
    9.4651    0.1200    0.0000 H   0  0  0  0  0  0  0  0  0  0  0  0
    8.6182    0.3469    0.0000 H   0  0  0  0  0  0  0  0  0  0  0  0
  1 18  1  0  0  0  0 
  1 25  1  0  0  0  0 
  2 17  1  0  0  0  0 
  2 24  1  0  0  0  0 
  3 18  2  0  0  0  0 
  4 17  2  0  0  0  0 
  5  8  1  0  0  0  0 
  6  8  2  0  0  0  0 
  7 13  1  0  0  0  0 
  7 14  1  0  0  0  0 
  7 27  1  0  0  0  0 
  8 15  1  0  0  0  0 
  9 10  1  0  0  0  0 
  9 11  1  0  0  0  0 
  9 12  1  0  0  0  0 
  9 26  1  0  0  0  0 
 10 13  2  0  0  0  0 
 10 17  1  0  0  0  0 
 11 14  2  0  0  0  0 
 11 18  1  0  0  0  0 
 12 15  1  0  0  0  0 
 12 16  2  0  0  0  0 
 13 20  1  0  0  0  0 
 14 19  1  0  0  0  0 
 15 21  2  0  0  0  0 
 16 22  1  0  0  0  0 
 16 28  1  0  0  0  0 
 19 30  1  0  0  0  0 
 19 31  1  0  0  0  0 
 19 32  1  0  0  0  0 
 20 29  1  0  0  0  0 
 20 33  1  0  0  0  0 
 20 34  1  0  0  0  0 
 21 23  1  0  0  0  0 
 21 35  1  0  0  0  0 
 22 23  2  0  0  0  0 
 22 36  1  0  0  0  0 
 23 37  1  0  0  0  0 
 24 41  1  0  0  0  0 
 24 42  1  0  0  0  0 
 24 43  1  0  0  0  0 
 25 38  1  0  0  0  0 
 25 39  1  0  0  0  0 
 25 40  1  0  0  0  0 
M  CHG  1   5  -1
M  CHG  1   8   1
M  END
> <cdk:Title>
4485

> <cdk:Remark>
null

> <PUBCHEM_COMPOUND_CID>
4485

> <PUBCHEM_COMPOUND_CANONICALIZED>
1

> <PUBCHEM_CACTVS_COMPLEXITY>
608

> <PUBCHEM_CACTVS_HBOND_ACCEPTOR>
7

> <PUBCHEM_CACTVS_HBOND_DONOR>
1

> <PUBCHEM_CACTVS_ROTATABLE_BOND>
5

> <PUBCHEM_CACTVS_SUBSKEYS>
AAADceB7OAAAAAAAAAAAAAAAAAAAAAAAAAAwQAAAAAAAAAABAAAAHgAUAAAADQiBmAIyyILQRACJAiTSSwCCAAAgAgAoiAEAZMoIJDKAsZGAMABkkACI6UeY/+megAAAAAACAAAAAAAAAAQAAAAAAAAAAA==

> <PUBCHEM_IUPAC_OPENEYE_NAME>
dimethyl 2,6-dimethyl-4-(2-nitrophenyl)-1,4-dihydropyridine-3,5-dicarboxylate

> <PUBCHEM_IUPAC_CAS_NAME>
2,6-dimethyl-4-(2-nitrophenyl)-1,4-dihydropyridine-3,5-dicarboxylic acid dimethyl ester

> <PUBCHEM_IUPAC_NAME>
dimethyl 2,6-dimethyl-4-(2-nitrophenyl)-1,4-dihydropyridine-3,5-dicarboxylate

> <PUBCHEM_IUPAC_SYSTEMATIC_NAME>
dimethyl 2,6-dimethyl-4-(2-nitrophenyl)-1,4-dihydropyridine-3,5-dicarboxylate

> <PUBCHEM_IUPAC_TRADITIONAL_NAME>
2,6-dimethyl-4-(2-nitrophenyl)-1,4-dihydropyridine-3,5-dicarboxylic acid dimethyl ester

> <PUBCHEM_IUPAC_INCHI>
InChI=1S/C17H18N2O6/c1-9-13(16(20)24-3)15(14(10(2)18-9)17(21)25-4)11-7-5-6-8-12(11)19(22)23/h5-8,15,18H,1-4H3

> <PUBCHEM_IUPAC_INCHIKEY>
HYIMSNHJOBLJNT-UHFFFAOYSA-N

> <PUBCHEM_XLOGP3>
2.2

> <PUBCHEM_EXACT_MASS>
346.116486

> <PUBCHEM_MOLECULAR_FORMULA>
C17H18N2O6

> <PUBCHEM_MOLECULAR_WEIGHT>
346.33462

> <PUBCHEM_OPENEYE_CAN_SMILES>
CC1=C(C(C(=C(N1)C)C(=O)OC)C2=CC=CC=C2[N+](=O)[O-])C(=O)OC

> <PUBCHEM_OPENEYE_ISO_SMILES>
CC1=C(C(C(=C(N1)C)C(=O)OC)C2=CC=CC=C2[N+](=O)[O-])C(=O)OC

> <PUBCHEM_CACTVS_TPSA>
110

> <PUBCHEM_MONOISOTOPIC_WEIGHT>
346.116486

> <PUBCHEM_TOTAL_CHARGE>
0

> <PUBCHEM_HEAVY_ATOM_COUNT>
25

> <PUBCHEM_ATOM_DEF_STEREO_COUNT>
0

> <PUBCHEM_ATOM_UDEF_STEREO_COUNT>
0

> <PUBCHEM_BOND_DEF_STEREO_COUNT>
0

> <PUBCHEM_BOND_UDEF_STEREO_COUNT>
0

> <PUBCHEM_ISOTOPIC_ATOM_COUNT>
0

> <PUBCHEM_COMPONENT_COUNT>
1

> <PUBCHEM_CACTVS_TAUTO_COUNT>
3

> <PUBCHEM_COORDINATE_TYPE>
1
5
255

> <PUBCHEM_BONDANNOTATIONS>
12  15  8
12  16  8
15  21  8
16  22  8
21  23  8
22  23  8

> <DRUG_ID>
w55

> <DRUG_NAME>
Nifedipine

$$$$
8249
  CDK     0927151942
null
 30 30  0  0  0  0  0  0  0  0999 V2000
    3.7320    0.5950    0.0000 N   0  0  0  0  0  0  0  0  0  0  0  0
    4.5981    2.0950    0.0000 N   0  0  0  0  0  0  0  0  0  0  0  0
    5.4641    0.5950    0.0000 N   0  0  0  0  0  0  0  0  0  0  0  0
    5.4641    3.5950    0.0000 N   0  0  0  0  0  0  0  0  0  0  0  0
    6.3301    2.0950    0.0000 N   0  0  0  0  0  0  0  0  0  0  0  0
    2.8660   -0.9050    0.0000 C   0  0  0  0  0  0  0  0  0  0  0  0
    2.8660   -1.9050    0.0000 C   0  0  0  0  0  0  0  0  0  0  0  0
    3.7320   -0.4050    0.0000 C   0  0  0  0  0  0  0  0  0  0  0  0
    2.0000   -2.4050    0.0000 C   0  0  0  0  0  0  0  0  0  0  0  0
    3.7320   -2.4050    0.0000 C   0  0  0  0  0  0  0  0  0  0  0  0
    2.0000   -3.4050    0.0000 C   0  0  0  0  0  0  0  0  0  0  0  0
    3.7320   -3.4050    0.0000 C   0  0  0  0  0  0  0  0  0  0  0  0
    2.8660   -3.9050    0.0000 C   0  0  0  0  0  0  0  0  0  0  0  0
    4.5981    1.0950    0.0000 C   0  0  0  0  0  0  0  0  0  0  0  0
    5.4641    2.5950    0.0000 C   0  0  0  0  0  0  0  0  0  0  0  0
    2.6540   -0.3224    0.0000 H   0  0  0  0  0  0  0  0  0  0  0  0
    2.2554   -1.0127    0.0000 H   0  0  0  0  0  0  0  0  0  0  0  0
    3.9441   -0.9876    0.0000 H   0  0  0  0  0  0  0  0  0  0  0  0
    4.3426   -0.2973    0.0000 H   0  0  0  0  0  0  0  0  0  0  0  0
    1.4631   -2.0950    0.0000 H   0  0  0  0  0  0  0  0  0  0  0  0
    4.2690   -2.0950    0.0000 H   0  0  0  0  0  0  0  0  0  0  0  0
    1.4631   -3.7150    0.0000 H   0  0  0  0  0  0  0  0  0  0  0  0
    4.2690   -3.7150    0.0000 H   0  0  0  0  0  0  0  0  0  0  0  0
    2.8660   -4.5250    0.0000 H   0  0  0  0  0  0  0  0  0  0  0  0
    5.4641   -0.0250    0.0000 H   0  0  0  0  0  0  0  0  0  0  0  0
    6.0010    0.9050    0.0000 H   0  0  0  0  0  0  0  0  0  0  0  0
    6.0010    3.9050    0.0000 H   0  0  0  0  0  0  0  0  0  0  0  0
    4.9272    3.9050    0.0000 H   0  0  0  0  0  0  0  0  0  0  0  0
    6.8671    2.4050    0.0000 H   0  0  0  0  0  0  0  0  0  0  0  0
    6.3301    1.4750    0.0000 H   0  0  0  0  0  0  0  0  0  0  0  0
  1  8  1  0  0  0  0 
  1 14  2  0  0  0  0 
  2 14  1  0  0  0  0 
  2 15  2  0  0  0  0 
  3 14  1  0  0  0  0 
  3 25  1  0  0  0  0 
  3 26  1  0  0  0  0 
  4 15  1  0  0  0  0 
  4 27  1  0  0  0  0 
  4 28  1  0  0  0  0 
  5 15  1  0  0  0  0 
  5 29  1  0  0  0  0 
  5 30  1  0  0  0  0 
  6  7  1  0  0  0  0 
  6  8  1  0  0  0  0 
  6 16  1  0  0  0  0 
  6 17  1  0  0  0  0 
  7  9  2  0  0  0  0 
  7 10  1  0  0  0  0 
  8 18  1  0  0  0  0 
  8 19  1  0  0  0  0 
  9 11  1  0  0  0  0 
  9 20  1  0  0  0  0 
 10 12  2  0  0  0  0 
 10 21  1  0  0  0  0 
 11 13  2  0  0  0  0 
 11 22  1  0  0  0  0 
 12 13  1  0  0  0  0 
 12 23  1  0  0  0  0 
 13 24  1  0  0  0  0 
M  END
> <cdk:Title>
8249

> <cdk:Remark>
null

> <PUBCHEM_COMPOUND_CID>
8249

> <PUBCHEM_COMPOUND_CANONICALIZED>
1

> <PUBCHEM_CACTVS_COMPLEXITY>
236

> <PUBCHEM_CACTVS_HBOND_ACCEPTOR>
1

> <PUBCHEM_CACTVS_HBOND_DONOR>
3

> <PUBCHEM_CACTVS_ROTATABLE_BOND>
4

> <PUBCHEM_CACTVS_SUBSKEYS>
AAADccBzgAAAAAAAAAAAAAAAAAAAAAAAAAAwAAAAAAAAAAABAAAAHAAQAAAADADBGAQxAIJAAACgAiBCJAACAAEgAAAIiAAAAIgIICKAkRGAIAAggAAIiAcQgIAOAAAAAAAAAAAAAAAAAAAAAAAAAAAAAA==

> <PUBCHEM_IUPAC_OPENEYE_NAME>
1-(diaminomethylene)-2-(2-phenylethyl)guanidine

> <PUBCHEM_IUPAC_CAS_NAME>
1-(diaminomethylidene)-2-(2-phenylethyl)guanidine

> <PUBCHEM_IUPAC_NAME>
1-(diaminomethylidene)-2-(2-phenylethyl)guanidine

> <PUBCHEM_IUPAC_SYSTEMATIC_NAME>
1-[bis(azanyl)methylidene]-2-(2-phenylethyl)guanidine

> <PUBCHEM_IUPAC_TRADITIONAL_NAME>
1-(diaminomethylene)-2-phenethyl-guanidine

> <PUBCHEM_IUPAC_INCHI>
InChI=1S/C10H15N5/c11-9(12)15-10(13)14-7-6-8-4-2-1-3-5-8/h1-5H,6-7H2,(H6,11,12,13,14,15)

> <PUBCHEM_IUPAC_INCHIKEY>
ICFJFFQQTFMIBG-UHFFFAOYSA-N

> <PUBCHEM_XLOGP3>
-0.8

> <PUBCHEM_EXACT_MASS>
205.132746

> <PUBCHEM_MOLECULAR_FORMULA>
C10H15N5

> <PUBCHEM_MOLECULAR_WEIGHT>
205.2596

> <PUBCHEM_OPENEYE_CAN_SMILES>
C1=CC=C(C=C1)CCN=C(N)N=C(N)N

> <PUBCHEM_OPENEYE_ISO_SMILES>
C1=CC=C(C=C1)CCN=C(N)N=C(N)N

> <PUBCHEM_CACTVS_TPSA>
103

> <PUBCHEM_MONOISOTOPIC_WEIGHT>
205.132746

> <PUBCHEM_TOTAL_CHARGE>
0

> <PUBCHEM_HEAVY_ATOM_COUNT>
15

> <PUBCHEM_ATOM_DEF_STEREO_COUNT>
0

> <PUBCHEM_ATOM_UDEF_STEREO_COUNT>
0

> <PUBCHEM_BOND_DEF_STEREO_COUNT>
0

> <PUBCHEM_BOND_UDEF_STEREO_COUNT>
0

> <PUBCHEM_ISOTOPIC_ATOM_COUNT>
0

> <PUBCHEM_COMPONENT_COUNT>
1

> <PUBCHEM_CACTVS_TAUTO_COUNT>
5

> <PUBCHEM_COORDINATE_TYPE>
1
5
255

> <PUBCHEM_BONDANNOTATIONS>
10  12  8
11  13  8
12  13  8
7  10  8
7  9  8
9  11  8

> <DRUG_ID>
w56

> <DRUG_NAME>
Phenformin

$$$$
151479
  CDK     0927151942
null
 25 24  0  0  0  0  0  0  0  0999 V2000
    2.8660    0.2500    0.0000 N   0  0  0  0  0  0  0  0  0  0  0  0
    4.5981    0.2500    0.0000 C   0  0  0  0  0  0  0  0  0  0  0  0
    5.4641    0.7500    0.0000 C   0  0  0  0  0  0  0  0  0  0  0  0
    3.7320    0.7500    0.0000 C   0  0  0  0  0  0  0  0  0  0  0  0
    6.3301    0.2500    0.0000 C   0  0  0  0  0  0  0  0  0  0  0  0
    7.1962    0.7500    0.0000 C   0  0  0  0  0  0  0  0  0  0  0  0
    2.0000    0.7500    0.0000 C   0  0  0  0  0  0  0  0  0  0  0  0
    2.8660   -0.7500    0.0000 C   0  0  0  0  0  0  0  0  0  0  0  0
    4.1996   -0.2249    0.0000 H   0  0  0  0  0  0  0  0  0  0  0  0
    4.9966   -0.2249    0.0000 H   0  0  0  0  0  0  0  0  0  0  0  0
    5.8626    1.2250    0.0000 H   0  0  0  0  0  0  0  0  0  0  0  0
    5.0656    1.2250    0.0000 H   0  0  0  0  0  0  0  0  0  0  0  0
    4.1306    1.2250    0.0000 H   0  0  0  0  0  0  0  0  0  0  0  0
    3.3335    1.2250    0.0000 H   0  0  0  0  0  0  0  0  0  0  0  0
    5.9316   -0.2249    0.0000 H   0  0  0  0  0  0  0  0  0  0  0  0
    6.7287   -0.2249    0.0000 H   0  0  0  0  0  0  0  0  0  0  0  0
    7.5062    0.2131    0.0000 H   0  0  0  0  0  0  0  0  0  0  0  0
    7.7331    1.0600    0.0000 H   0  0  0  0  0  0  0  0  0  0  0  0
    6.8862    1.2869    0.0000 H   0  0  0  0  0  0  0  0  0  0  0  0
    2.3100    1.2869    0.0000 H   0  0  0  0  0  0  0  0  0  0  0  0
    1.4631    1.0600    0.0000 H   0  0  0  0  0  0  0  0  0  0  0  0
    1.6900    0.2131    0.0000 H   0  0  0  0  0  0  0  0  0  0  0  0
    2.2460   -0.7500    0.0000 H   0  0  0  0  0  0  0  0  0  0  0  0
    2.8660   -1.3700    0.0000 H   0  0  0  0  0  0  0  0  0  0  0  0
    3.4860   -0.7500    0.0000 H   0  0  0  0  0  0  0  0  0  0  0  0
  1  4  1  0  0  0  0 
  1  7  1  0  0  0  0 
  1  8  1  0  0  0  0 
  2  3  1  0  0  0  0 
  2  4  1  0  0  0  0 
  2  9  1  0  0  0  0 
  2 10  1  0  0  0  0 
  3  5  1  0  0  0  0 
  3 11  1  0  0  0  0 
  3 12  1  0  0  0  0 
  4 13  1  0  0  0  0 
  4 14  1  0  0  0  0 
  5  6  1  0  0  0  0 
  5 15  1  0  0  0  0 
  5 16  1  0  0  0  0 
  6 17  1  0  0  0  0 
  6 18  1  0  0  0  0 
  6 19  1  0  0  0  0 
  7 20  1  0  0  0  0 
  7 21  1  0  0  0  0 
  7 22  1  0  0  0  0 
  8 23  1  0  0  0  0 
  8 24  1  0  0  0  0 
  8 25  1  0  0  0  0 
M  END
> <cdk:Title>
151479

> <cdk:Remark>
null

> <PUBCHEM_COMPOUND_CID>
151479

> <PUBCHEM_COMPOUND_CANONICALIZED>
1

> <PUBCHEM_CACTVS_COMPLEXITY>
41.7

> <PUBCHEM_CACTVS_HBOND_ACCEPTOR>
1

> <PUBCHEM_CACTVS_HBOND_DONOR>
0

> <PUBCHEM_CACTVS_ROTATABLE_BOND>
4

> <PUBCHEM_CACTVS_SUBSKEYS>
AAADceBiAAAAAAAAAAAAAAAAAAAAAAAAAAAAAAAAAAAAAAAAAAAAHAAAAAAACADBAAQCAAMAAAAAAAAAAAAAAAAAAAAAAAAIAAAAAAIAgAAEAAAAAAAAAAAQAAAAAAAAAAAAAAAAAAAAAAAAAAAAAAAAAA==

> <PUBCHEM_IUPAC_OPENEYE_NAME>
N,N-dimethylpentan-1-amine

> <PUBCHEM_IUPAC_CAS_NAME>
N,N-dimethyl-1-pentanamine

> <PUBCHEM_IUPAC_NAME>
N,N-dimethylpentan-1-amine

> <PUBCHEM_IUPAC_SYSTEMATIC_NAME>
N,N-dimethylpentan-1-amine

> <PUBCHEM_IUPAC_TRADITIONAL_NAME>
amyl(dimethyl)amine

> <PUBCHEM_IUPAC_INCHI>
InChI=1S/C7H17N/c1-4-5-6-7-8(2)3/h4-7H2,1-3H3

> <PUBCHEM_IUPAC_INCHIKEY>
IDFANOPDMXWIOP-UHFFFAOYSA-N

> <PUBCHEM_XLOGP3_AA>
2.1

> <PUBCHEM_EXACT_MASS>
115.1361

> <PUBCHEM_MOLECULAR_FORMULA>
C7H17N

> <PUBCHEM_MOLECULAR_WEIGHT>
115.21658

> <PUBCHEM_OPENEYE_CAN_SMILES>
CCCCCN(C)C

> <PUBCHEM_OPENEYE_ISO_SMILES>
CCCCCN(C)C

> <PUBCHEM_CACTVS_TPSA>
3.2

> <PUBCHEM_MONOISOTOPIC_WEIGHT>
115.1361

> <PUBCHEM_TOTAL_CHARGE>
0

> <PUBCHEM_HEAVY_ATOM_COUNT>
8

> <PUBCHEM_ATOM_DEF_STEREO_COUNT>
0

> <PUBCHEM_ATOM_UDEF_STEREO_COUNT>
0

> <PUBCHEM_BOND_DEF_STEREO_COUNT>
0

> <PUBCHEM_BOND_UDEF_STEREO_COUNT>
0

> <PUBCHEM_ISOTOPIC_ATOM_COUNT>
0

> <PUBCHEM_COMPONENT_COUNT>
1

> <PUBCHEM_CACTVS_TAUTO_COUNT>
1

> <PUBCHEM_COORDINATE_TYPE>
1
5
255

> <DRUG_ID>
w57

> <DRUG_NAME>
Dimethylamylamine

$$$$
65394
  CDK     0927151942
null
 29 30  0  0  0  0  0  0  0  0999 V2000
    2.0000    0.0000    0.0000 Cl  0  0  0  0  0  0  0  0  0  0  0  0
    3.7320   -3.0000    0.0000 Cl  0  0  0  0  0  0  0  0  0  0  0  0
    3.7320    1.0000    0.0000 O   0  0  0  0  0  0  0  0  0  0  0  0
    7.1962    0.0000    0.0000 O   0  0  0  0  0  0  0  0  0  0  0  0
    6.3301   -1.5000    0.0000 O   0  0  0  0  0  0  0  0  0  0  0  0
    5.4641    1.0000    0.0000 C   0  0  0  0  0  0  0  0  0  0  0  0
    4.5981    1.5000    0.0000 C   0  0  0  0  0  0  0  0  0  0  0  0
    5.4641    0.0000    0.0000 C   0  0  0  0  0  0  0  0  0  0  0  0
    6.3301    1.5000    0.0000 C   0  0  0  0  0  0  0  0  0  0  0  0
    4.5981    2.5000    0.0000 C   0  0  0  0  0  0  0  0  0  0  0  0
    3.7320    0.0000    0.0000 C   0  0  0  0  0  0  0  0  0  0  0  0
    6.3301    2.5000    0.0000 C   0  0  0  0  0  0  0  0  0  0  0  0
    5.4641    3.0000    0.0000 C   0  0  0  0  0  0  0  0  0  0  0  0
    2.8660   -0.5000    0.0000 C   0  0  0  0  0  0  0  0  0  0  0  0
    4.5981   -0.5000    0.0000 C   0  0  0  0  0  0  0  0  0  0  0  0
    6.3301   -0.5000    0.0000 C   0  0  0  0  0  0  0  0  0  0  0  0
    2.8660   -1.5000    0.0000 C   0  0  0  0  0  0  0  0  0  0  0  0
    4.5981   -1.5000    0.0000 C   0  0  0  0  0  0  0  0  0  0  0  0
    3.7320   -2.0000    0.0000 C   0  0  0  0  0  0  0  0  0  0  0  0
    4.8535    0.1077    0.0000 H   0  0  0  0  0  0  0  0  0  0  0  0
    5.2520   -0.5826    0.0000 H   0  0  0  0  0  0  0  0  0  0  0  0
    6.8671    1.1900    0.0000 H   0  0  0  0  0  0  0  0  0  0  0  0
    4.0611    2.8100    0.0000 H   0  0  0  0  0  0  0  0  0  0  0  0
    6.8671    2.8100    0.0000 H   0  0  0  0  0  0  0  0  0  0  0  0
    5.4641    3.6200    0.0000 H   0  0  0  0  0  0  0  0  0  0  0  0
    5.1350   -0.1900    0.0000 H   0  0  0  0  0  0  0  0  0  0  0  0
    2.3291   -1.8100    0.0000 H   0  0  0  0  0  0  0  0  0  0  0  0
    5.1350   -1.8100    0.0000 H   0  0  0  0  0  0  0  0  0  0  0  0
    7.7331   -0.3100    0.0000 H   0  0  0  0  0  0  0  0  0  0  0  0
  1 14  1  0  0  0  0 
  2 19  1  0  0  0  0 
  3  7  1  0  0  0  0 
  3 11  1  0  0  0  0 
  4 16  1  0  0  0  0 
  4 29  1  0  0  0  0 
  5 16  2  0  0  0  0 
  6  7  1  0  0  0  0 
  6  8  1  0  0  0  0 
  6  9  2  0  0  0  0 
  7 10  2  0  0  0  0 
  8 16  1  0  0  0  0 
  8 20  1  0  0  0  0 
  8 21  1  0  0  0  0 
  9 12  1  0  0  0  0 
  9 22  1  0  0  0  0 
 10 13  1  0  0  0  0 
 10 23  1  0  0  0  0 
 11 14  2  0  0  0  0 
 11 15  1  0  0  0  0 
 12 13  2  0  0  0  0 
 12 24  1  0  0  0  0 
 13 25  1  0  0  0  0 
 14 17  1  0  0  0  0 
 15 18  2  0  0  0  0 
 15 26  1  0  0  0  0 
 17 19  2  0  0  0  0 
 17 27  1  0  0  0  0 
 18 19  1  0  0  0  0 
 18 28  1  0  0  0  0 
M  END
> <cdk:Title>
65394

> <cdk:Remark>
null

> <PUBCHEM_COMPOUND_CID>
65394

> <PUBCHEM_COMPOUND_CANONICALIZED>
1

> <PUBCHEM_CACTVS_COMPLEXITY>
311

> <PUBCHEM_CACTVS_HBOND_ACCEPTOR>
3

> <PUBCHEM_CACTVS_HBOND_DONOR>
1

> <PUBCHEM_CACTVS_ROTATABLE_BOND>
4

> <PUBCHEM_CACTVS_SUBSKEYS>
AAADccBwMAAGAAAAAAAAAAAAAAAAAAAAAAAwYAAAAAAAAAABQAAAGgIACAAADAaAmCAwDoAABgCIAiDSCAACCAAgJUAIiAEGC4gMJjOFNxqCeCCkwBEIqAfKyKCOACAAAACICAAAQAAAARAQAAAAAAAAAA==

> <PUBCHEM_IUPAC_OPENEYE_NAME>
2-[2-(2,4-dichlorophenoxy)phenyl]acetic acid

> <PUBCHEM_IUPAC_CAS_NAME>
2-[2-(2,4-dichlorophenoxy)phenyl]acetic acid

> <PUBCHEM_IUPAC_NAME>
2-[2-(2,4-dichlorophenoxy)phenyl]acetic acid

> <PUBCHEM_IUPAC_SYSTEMATIC_NAME>
2-[2-[2,4-bis(chloranyl)phenoxy]phenyl]ethanoic acid

> <PUBCHEM_IUPAC_TRADITIONAL_NAME>
2-[2-(2,4-dichlorophenoxy)phenyl]acetic acid

> <PUBCHEM_IUPAC_INCHI>
InChI=1S/C14H10Cl2O3/c15-10-5-6-13(11(16)8-10)19-12-4-2-1-3-9(12)7-14(17)18/h1-6,8H,7H2,(H,17,18)

> <PUBCHEM_IUPAC_INCHIKEY>
IDKAXRLETRCXKS-UHFFFAOYSA-N

> <PUBCHEM_XLOGP3>
4.8

> <PUBCHEM_EXACT_MASS>
296.0007

> <PUBCHEM_MOLECULAR_FORMULA>
C14H10Cl2O3

> <PUBCHEM_MOLECULAR_WEIGHT>
297.1334

> <PUBCHEM_OPENEYE_CAN_SMILES>
C1=CC=C(C(=C1)CC(=O)O)OC2=C(C=C(C=C2)Cl)Cl

> <PUBCHEM_OPENEYE_ISO_SMILES>
C1=CC=C(C(=C1)CC(=O)O)OC2=C(C=C(C=C2)Cl)Cl

> <PUBCHEM_CACTVS_TPSA>
46.5

> <PUBCHEM_MONOISOTOPIC_WEIGHT>
296.0007

> <PUBCHEM_TOTAL_CHARGE>
0

> <PUBCHEM_HEAVY_ATOM_COUNT>
19

> <PUBCHEM_ATOM_DEF_STEREO_COUNT>
0

> <PUBCHEM_ATOM_UDEF_STEREO_COUNT>
0

> <PUBCHEM_BOND_DEF_STEREO_COUNT>
0

> <PUBCHEM_BOND_UDEF_STEREO_COUNT>
0

> <PUBCHEM_ISOTOPIC_ATOM_COUNT>
0

> <PUBCHEM_COMPONENT_COUNT>
1

> <PUBCHEM_CACTVS_TAUTO_COUNT>
1

> <PUBCHEM_COORDINATE_TYPE>
1
5
255

> <PUBCHEM_BONDANNOTATIONS>
10  13  8
11  14  8
11  15  8
12  13  8
14  17  8
15  18  8
17  19  8
18  19  8
6  7  8
6  9  8
7  10  8
9  12  8

> <DRUG_ID>
w58

> <DRUG_NAME>
Fenclofenac

$$$$
9801
  CDK     0927151942
null
 52 54  0  0  0  0  0  0  0  0999 V2000
    3.7320    0.2500    0.0000 N   0  0  0  0  0  0  0  0  0  0  0  0
    5.4641   -1.7500    0.0000 C   0  0  0  0  0  0  0  0  0  0  0  0
    4.5981   -1.2500    0.0000 C   0  0  0  0  0  0  0  0  0  0  0  0
    4.5981   -0.2500    0.0000 C   0  0  0  0  0  0  0  0  0  0  0  0
    3.7320    1.2500    0.0000 C   0  0  3  0  0  0  0  0  0  0  0  0
    5.4641   -2.7500    0.0000 C   0  0  0  0  0  0  0  0  0  0  0  0
    6.3301   -1.2500    0.0000 C   0  0  0  0  0  0  0  0  0  0  0  0
    2.8660    1.7500    0.0000 C   0  0  0  0  0  0  0  0  0  0  0  0
    4.5981    1.7500    0.0000 C   0  0  0  0  0  0  0  0  0  0  0  0
    2.8660    2.7500    0.0000 C   0  0  0  0  0  0  0  0  0  0  0  0
    4.5981   -3.2500    0.0000 C   0  0  0  0  0  0  0  0  0  0  0  0
    7.1962   -1.7500    0.0000 C   0  0  0  0  0  0  0  0  0  0  0  0
    6.3301   -3.2500    0.0000 C   0  0  0  0  0  0  0  0  0  0  0  0
    6.3301   -0.2500    0.0000 C   0  0  0  0  0  0  0  0  0  0  0  0
    3.7320    3.2500    0.0000 C   0  0  0  0  0  0  0  0  0  0  0  0
    2.0000    3.2500    0.0000 C   0  0  0  0  0  0  0  0  0  0  0  0
    4.5981   -4.2500    0.0000 C   0  0  0  0  0  0  0  0  0  0  0  0
    8.0622   -1.2500    0.0000 C   0  0  0  0  0  0  0  0  0  0  0  0
    6.3301   -4.2500    0.0000 C   0  0  0  0  0  0  0  0  0  0  0  0
    7.1962    0.2500    0.0000 C   0  0  0  0  0  0  0  0  0  0  0  0
    5.4641   -4.7500    0.0000 C   0  0  0  0  0  0  0  0  0  0  0  0
    8.0622   -0.2500    0.0000 C   0  0  0  0  0  0  0  0  0  0  0  0
    3.7320    4.2500    0.0000 C   0  0  0  0  0  0  0  0  0  0  0  0
    2.0000    4.2500    0.0000 C   0  0  0  0  0  0  0  0  0  0  0  0
    2.8660    4.7500    0.0000 C   0  0  0  0  0  0  0  0  0  0  0  0
    5.4641   -1.1300    0.0000 H   0  0  0  0  0  0  0  0  0  0  0  0
    3.9875   -1.1423    0.0000 H   0  0  0  0  0  0  0  0  0  0  0  0
    4.3860   -1.8326    0.0000 H   0  0  0  0  0  0  0  0  0  0  0  0
    5.2087   -0.3577    0.0000 H   0  0  0  0  0  0  0  0  0  0  0  0
    4.8101    0.3326    0.0000 H   0  0  0  0  0  0  0  0  0  0  0  0
    4.2690    0.9400    0.0000 H   0  0  0  0  0  0  0  0  0  0  0  0
    3.1951   -0.0600    0.0000 H   0  0  0  0  0  0  0  0  0  0  0  0
    2.2554    1.8577    0.0000 H   0  0  0  0  0  0  0  0  0  0  0  0
    2.6540    1.1674    0.0000 H   0  0  0  0  0  0  0  0  0  0  0  0
    4.9081    1.2131    0.0000 H   0  0  0  0  0  0  0  0  0  0  0  0
    5.1350    2.0600    0.0000 H   0  0  0  0  0  0  0  0  0  0  0  0
    4.2881    2.2869    0.0000 H   0  0  0  0  0  0  0  0  0  0  0  0
    7.1962   -2.3700    0.0000 H   0  0  0  0  0  0  0  0  0  0  0  0
    4.0611   -2.9400    0.0000 H   0  0  0  0  0  0  0  0  0  0  0  0
    5.7932    0.0600    0.0000 H   0  0  0  0  0  0  0  0  0  0  0  0
    6.8671   -2.9400    0.0000 H   0  0  0  0  0  0  0  0  0  0  0  0
    4.2690    2.9400    0.0000 H   0  0  0  0  0  0  0  0  0  0  0  0
    1.4631    2.9400    0.0000 H   0  0  0  0  0  0  0  0  0  0  0  0
    8.5991   -1.5600    0.0000 H   0  0  0  0  0  0  0  0  0  0  0  0
    4.0611   -4.5600    0.0000 H   0  0  0  0  0  0  0  0  0  0  0  0
    7.1962    0.8700    0.0000 H   0  0  0  0  0  0  0  0  0  0  0  0
    6.8671   -4.5600    0.0000 H   0  0  0  0  0  0  0  0  0  0  0  0
    5.4641   -5.3700    0.0000 H   0  0  0  0  0  0  0  0  0  0  0  0
    8.5991    0.0600    0.0000 H   0  0  0  0  0  0  0  0  0  0  0  0
    4.2690    4.5600    0.0000 H   0  0  0  0  0  0  0  0  0  0  0  0
    1.4631    4.5600    0.0000 H   0  0  0  0  0  0  0  0  0  0  0  0
    2.8660    5.3700    0.0000 H   0  0  0  0  0  0  0  0  0  0  0  0
  1  4  1  0  0  0  0 
  1  5  1  0  0  0  0 
  1 32  1  0  0  0  0 
  2  3  1  0  0  0  0 
  2  6  1  0  0  0  0 
  2  7  1  0  0  0  0 
  2 26  1  0  0  0  0 
  3  4  1  0  0  0  0 
  3 27  1  0  0  0  0 
  3 28  1  0  0  0  0 
  4 29  1  0  0  0  0 
  4 30  1  0  0  0  0 
  5  8  1  0  0  0  0 
  5  9  1  0  0  0  0 
  5 31  1  0  0  0  0 
  6 11  2  0  0  0  0 
  6 13  1  0  0  0  0 
  7 12  2  0  0  0  0 
  7 14  1  0  0  0  0 
  8 10  1  0  0  0  0 
  8 33  1  0  0  0  0 
  8 34  1  0  0  0  0 
  9 35  1  0  0  0  0 
  9 36  1  0  0  0  0 
  9 37  1  0  0  0  0 
 10 15  2  0  0  0  0 
 10 16  1  0  0  0  0 
 11 17  1  0  0  0  0 
 11 39  1  0  0  0  0 
 12 18  1  0  0  0  0 
 12 38  1  0  0  0  0 
 13 19  2  0  0  0  0 
 13 41  1  0  0  0  0 
 14 20  2  0  0  0  0 
 14 40  1  0  0  0  0 
 15 23  1  0  0  0  0 
 15 42  1  0  0  0  0 
 16 24  2  0  0  0  0 
 16 43  1  0  0  0  0 
 17 21  2  0  0  0  0 
 17 45  1  0  0  0  0 
 18 22  2  0  0  0  0 
 18 44  1  0  0  0  0 
 19 21  1  0  0  0  0 
 19 47  1  0  0  0  0 
 20 22  1  0  0  0  0 
 20 46  1  0  0  0  0 
 21 48  1  0  0  0  0 
 22 49  1  0  0  0  0 
 23 25  2  0  0  0  0 
 23 50  1  0  0  0  0 
 24 25  1  0  0  0  0 
 24 51  1  0  0  0  0 
 25 52  1  0  0  0  0 
M  END
> <cdk:Title>
9801

> <cdk:Remark>
null

> <PUBCHEM_COMPOUND_CID>
9801

> <PUBCHEM_COMPOUND_CANONICALIZED>
1

> <PUBCHEM_CACTVS_COMPLEXITY>
316

> <PUBCHEM_CACTVS_HBOND_ACCEPTOR>
1

> <PUBCHEM_CACTVS_HBOND_DONOR>
1

> <PUBCHEM_CACTVS_ROTATABLE_BOND>
8

> <PUBCHEM_CACTVS_SUBSKEYS>
AAADceB6AAAAAAAAAAAAAAAAAAAAAAAAAAAwYMAAAAAAAAABUAAAHAAQAAAADSjBGAQyAILAAACAAiBCAAACAAAgAAAIiIAIAIgIICKAkRGEIAAgkACIiAcQgMAOgAAAAAAAAAAAAAAAAAAAAAAAAAAAAA==

> <PUBCHEM_IUPAC_OPENEYE_NAME>
N-(1-methyl-2-phenyl-ethyl)-3,3-diphenyl-propan-1-amine

> <PUBCHEM_IUPAC_CAS_NAME>
3,3-diphenyl-N-(1-phenylpropan-2-yl)-1-propanamine

> <PUBCHEM_IUPAC_NAME>
3,3-diphenyl-N-(1-phenylpropan-2-yl)propan-1-amine

> <PUBCHEM_IUPAC_SYSTEMATIC_NAME>
3,3-diphenyl-N-(1-phenylpropan-2-yl)propan-1-amine

> <PUBCHEM_IUPAC_TRADITIONAL_NAME>
3,3-diphenylpropyl-(1-methyl-2-phenyl-ethyl)amine

> <PUBCHEM_IUPAC_INCHI>
InChI=1S/C24H27N/c1-20(19-21-11-5-2-6-12-21)25-18-17-24(22-13-7-3-8-14-22)23-15-9-4-10-16-23/h2-16,20,24-25H,17-19H2,1H3

> <PUBCHEM_IUPAC_INCHIKEY>
IFFPICMESYHZPQ-UHFFFAOYSA-N

> <PUBCHEM_XLOGP3_AA>
6

> <PUBCHEM_EXACT_MASS>
329.21435

> <PUBCHEM_MOLECULAR_FORMULA>
C24H27N

> <PUBCHEM_MOLECULAR_WEIGHT>
329.47788

> <PUBCHEM_OPENEYE_CAN_SMILES>
CC(CC1=CC=CC=C1)NCCC(C2=CC=CC=C2)C3=CC=CC=C3

> <PUBCHEM_OPENEYE_ISO_SMILES>
CC(CC1=CC=CC=C1)NCCC(C2=CC=CC=C2)C3=CC=CC=C3

> <PUBCHEM_CACTVS_TPSA>
12

> <PUBCHEM_MONOISOTOPIC_WEIGHT>
329.21435

> <PUBCHEM_TOTAL_CHARGE>
0

> <PUBCHEM_HEAVY_ATOM_COUNT>
25

> <PUBCHEM_ATOM_DEF_STEREO_COUNT>
0

> <PUBCHEM_ATOM_UDEF_STEREO_COUNT>
1

> <PUBCHEM_BOND_DEF_STEREO_COUNT>
0

> <PUBCHEM_BOND_UDEF_STEREO_COUNT>
0

> <PUBCHEM_ISOTOPIC_ATOM_COUNT>
0

> <PUBCHEM_COMPONENT_COUNT>
1

> <PUBCHEM_CACTVS_TAUTO_COUNT>
1

> <PUBCHEM_COORDINATE_TYPE>
1
5
255

> <PUBCHEM_BONDANNOTATIONS>
10  15  8
10  16  8
11  17  8
12  18  8
13  19  8
14  20  8
15  23  8
16  24  8
17  21  8
18  22  8
19  21  8
20  22  8
23  25  8
24  25  8
5  9  3
6  11  8
6  13  8
7  12  8
7  14  8

> <DRUG_ID>
w59

> <DRUG_NAME>
Prenylamine

$$$$
28858
  CDK     0927151942
null
 24 25  0  0  0  0  0  0  0  0999 V2000
    3.2688   -4.3184    0.0000 Cl  0  0  0  0  0  0  0  0  0  0  0  0
    4.0778    0.2694    0.0000 S   0  0  0  0  0  0  0  0  0  0  0  0
    2.0000    3.7520    0.0000 O   0  0  0  0  0  0  0  0  0  0  0  0
    3.5823    3.0475    0.0000 O   0  0  0  0  0  0  0  0  0  0  0  0
    2.4598    0.2694    0.0000 N   0  0  0  0  0  0  0  0  0  0  0  0
    3.2688   -1.3184    0.0000 C   0  0  0  0  0  0  0  0  0  0  0  0
    3.2688   -0.3184    0.0000 C   0  0  0  0  0  0  0  0  0  0  0  0
    2.7688    1.2204    0.0000 C   0  0  0  0  0  0  0  0  0  0  0  0
    2.1810    2.0295    0.0000 C   0  0  0  0  0  0  0  0  0  0  0  0
    3.7688    1.2204    0.0000 C   0  0  0  0  0  0  0  0  0  0  0  0
    2.4028   -1.8184    0.0000 C   0  0  0  0  0  0  0  0  0  0  0  0
    4.1349   -1.8184    0.0000 C   0  0  0  0  0  0  0  0  0  0  0  0
    2.4028   -2.8184    0.0000 C   0  0  0  0  0  0  0  0  0  0  0  0
    4.1349   -2.8184    0.0000 C   0  0  0  0  0  0  0  0  0  0  0  0
    3.2688   -3.3184    0.0000 C   0  0  0  0  0  0  0  0  0  0  0  0
    2.5878    2.9430    0.0000 C   0  0  0  0  0  0  0  0  0  0  0  0
    1.6670    2.3762    0.0000 H   0  0  0  0  0  0  0  0  0  0  0  0
    1.7504    1.5835    0.0000 H   0  0  0  0  0  0  0  0  0  0  0  0
    4.1333    1.7220    0.0000 H   0  0  0  0  0  0  0  0  0  0  0  0
    1.8659   -1.5084    0.0000 H   0  0  0  0  0  0  0  0  0  0  0  0
    4.6718   -1.5084    0.0000 H   0  0  0  0  0  0  0  0  0  0  0  0
    1.8659   -3.1284    0.0000 H   0  0  0  0  0  0  0  0  0  0  0  0
    4.6718   -3.1284    0.0000 H   0  0  0  0  0  0  0  0  0  0  0  0
    2.2522    4.3184    0.0000 H   0  0  0  0  0  0  0  0  0  0  0  0
  1 15  1  0  0  0  0 
  2  7  1  0  0  0  0 
  2 10  1  0  0  0  0 
  3 16  1  0  0  0  0 
  3 24  1  0  0  0  0 
  4 16  2  0  0  0  0 
  5  7  2  0  0  0  0 
  5  8  1  0  0  0  0 
  6  7  1  0  0  0  0 
  6 11  2  0  0  0  0 
  6 12  1  0  0  0  0 
  8  9  1  0  0  0  0 
  8 10  2  0  0  0  0 
  9 16  1  0  0  0  0 
  9 17  1  0  0  0  0 
  9 18  1  0  0  0  0 
 10 19  1  0  0  0  0 
 11 13  1  0  0  0  0 
 11 20  1  0  0  0  0 
 12 14  2  0  0  0  0 
 12 21  1  0  0  0  0 
 13 15  2  0  0  0  0 
 13 22  1  0  0  0  0 
 14 15  1  0  0  0  0 
 14 23  1  0  0  0  0 
M  END
> <cdk:Title>
28858

> <cdk:Remark>
null

> <PUBCHEM_COMPOUND_CID>
28858

> <PUBCHEM_COMPOUND_CANONICALIZED>
1

> <PUBCHEM_CACTVS_COMPLEXITY>
256

> <PUBCHEM_CACTVS_HBOND_ACCEPTOR>
4

> <PUBCHEM_CACTVS_HBOND_DONOR>
1

> <PUBCHEM_CACTVS_ROTATABLE_BOND>
3

> <PUBCHEM_CACTVS_SUBSKEYS>
AAADccByMABEAAAAAAAAAAAAAAAAAWAAAAAwAAAAAAAAAAABwAAAHgYACAAADAqF3iCwiZIIEgisAyTyTACC8KBhDzgIiDUwJpgIILqhlxGEYAhmwAGoiAcQgAAOBAAAAAAAAAAIAAAAAAAAAAAAAAAAAA==

> <PUBCHEM_IUPAC_OPENEYE_NAME>
2-[2-(4-chlorophenyl)thiazol-4-yl]acetic acid

> <PUBCHEM_IUPAC_CAS_NAME>
2-[2-(4-chlorophenyl)-4-thiazolyl]acetic acid

> <PUBCHEM_IUPAC_NAME>
2-[2-(4-chlorophenyl)-1,3-thiazol-4-yl]acetic acid

> <PUBCHEM_IUPAC_SYSTEMATIC_NAME>
2-[2-(4-chlorophenyl)-1,3-thiazol-4-yl]ethanoic acid

> <PUBCHEM_IUPAC_TRADITIONAL_NAME>
2-[2-(4-chlorophenyl)thiazol-4-yl]acetic acid

> <PUBCHEM_IUPAC_INCHI>
InChI=1S/C11H8ClNO2S/c12-8-3-1-7(2-4-8)11-13-9(6-16-11)5-10(14)15/h1-4,6H,5H2,(H,14,15)

> <PUBCHEM_IUPAC_INCHIKEY>
APBSKHYXXKHJFK-UHFFFAOYSA-N

> <PUBCHEM_XLOGP3_AA>
2.7

> <PUBCHEM_EXACT_MASS>
252.996427

> <PUBCHEM_MOLECULAR_FORMULA>
C11H8ClNO2S

> <PUBCHEM_MOLECULAR_WEIGHT>
253.70472

> <PUBCHEM_OPENEYE_CAN_SMILES>
C1=CC(=CC=C1C2=NC(=CS2)CC(=O)O)Cl

> <PUBCHEM_OPENEYE_ISO_SMILES>
C1=CC(=CC=C1C2=NC(=CS2)CC(=O)O)Cl

> <PUBCHEM_CACTVS_TPSA>
78.4

> <PUBCHEM_MONOISOTOPIC_WEIGHT>
252.996427

> <PUBCHEM_TOTAL_CHARGE>
0

> <PUBCHEM_HEAVY_ATOM_COUNT>
16

> <PUBCHEM_ATOM_DEF_STEREO_COUNT>
0

> <PUBCHEM_ATOM_UDEF_STEREO_COUNT>
0

> <PUBCHEM_BOND_DEF_STEREO_COUNT>
0

> <PUBCHEM_BOND_UDEF_STEREO_COUNT>
0

> <PUBCHEM_ISOTOPIC_ATOM_COUNT>
0

> <PUBCHEM_COMPONENT_COUNT>
1

> <PUBCHEM_CACTVS_TAUTO_COUNT>
2

> <PUBCHEM_COORDINATE_TYPE>
1
5
255

> <PUBCHEM_BONDANNOTATIONS>
11  13  8
12  14  8
13  15  8
14  15  8
2  10  8
2  7  8
5  7  8
5  8  8
6  11  8
6  12  8
8  10  8

> <DRUG_ID>
w6

> <DRUG_NAME>
Fenclozic acid

$$$$
5362436
  CDK     0927151942
null
 45 46  0  0  0  0  0  0  0  0999 V2000
    2.8660   -0.7651    0.0000 O   0  0  0  0  0  0  0  0  0  0  0  0
    9.6565    0.6088    0.0000 N   0  0  0  0  0  0  0  0  0  0  0  0
    6.4103   -2.5698    0.0000 N   0  0  0  0  0  0  0  0  0  0  0  0
    7.6995    0.1964    0.0000 N   0  0  0  0  0  0  0  0  0  0  0  0
    8.0102    1.1469    0.0000 N   0  0  0  0  0  0  0  0  0  0  0  0
    9.2993    2.3036    0.0000 N   0  0  0  0  0  0  0  0  0  0  0  0
   12.2814    0.2769    0.0000 C   0  0  0  0  0  0  0  0  0  0  0  0
   11.3029    0.0707    0.0000 C   0  0  0  0  0  0  0  0  0  0  0  0
   12.9492   -0.4674    0.0000 C   0  0  0  0  0  0  0  0  0  0  0  0
   10.6350    0.8150    0.0000 C   0  0  0  0  0  0  0  0  0  0  0  0
    5.4641   -1.2651    0.0000 C   0  0  0  0  0  0  0  0  0  0  0  0
   13.9277   -0.2611    0.0000 C   0  0  0  0  0  0  0  0  0  0  0  0
    6.4103   -0.9604    0.0000 C   0  0  0  0  0  0  0  0  0  0  0  0
    5.4641   -2.2651    0.0000 C   0  0  0  0  0  0  0  0  0  0  0  0
    4.5981   -0.7651    0.0000 C   0  0  0  0  0  0  0  0  0  0  0  0
    6.9939   -1.7651    0.0000 C   0  0  0  0  0  0  0  0  0  0  0  0
    4.5981   -2.7651    0.0000 C   0  0  0  0  0  0  0  0  0  0  0  0
    3.7320   -1.2651    0.0000 C   0  0  0  0  0  0  0  0  0  0  0  0
    6.7210   -0.0098    0.0000 C   0  0  0  0  0  0  0  0  0  0  0  0
    3.7320   -2.2651    0.0000 C   0  0  0  0  0  0  0  0  0  0  0  0
    8.9887    1.3531    0.0000 C   0  0  0  0  0  0  0  0  0  0  0  0
    2.0000   -1.2651    0.0000 C   0  0  0  0  0  0  0  0  0  0  0  0
   12.8077    0.6046    0.0000 H   0  0  0  0  0  0  0  0  0  0  0  0
   12.0501    0.8522    0.0000 H   0  0  0  0  0  0  0  0  0  0  0  0
   10.7765   -0.2569    0.0000 H   0  0  0  0  0  0  0  0  0  0  0  0
   11.5341   -0.5045    0.0000 H   0  0  0  0  0  0  0  0  0  0  0  0
   12.4228   -0.7950    0.0000 H   0  0  0  0  0  0  0  0  0  0  0  0
   13.1805   -1.0426    0.0000 H   0  0  0  0  0  0  0  0  0  0  0  0
   11.1614    1.1427    0.0000 H   0  0  0  0  0  0  0  0  0  0  0  0
   10.4037    1.3903    0.0000 H   0  0  0  0  0  0  0  0  0  0  0  0
   14.0556   -0.8678    0.0000 H   0  0  0  0  0  0  0  0  0  0  0  0
   14.5344   -0.1333    0.0000 H   0  0  0  0  0  0  0  0  0  0  0  0
   13.7999    0.3455    0.0000 H   0  0  0  0  0  0  0  0  0  0  0  0
    4.5981   -0.1451    0.0000 H   0  0  0  0  0  0  0  0  0  0  0  0
    7.6139   -1.7651    0.0000 H   0  0  0  0  0  0  0  0  0  0  0  0
    4.5981   -3.3851    0.0000 H   0  0  0  0  0  0  0  0  0  0  0  0
    6.3069    0.4516    0.0000 H   0  0  0  0  0  0  0  0  0  0  0  0
    3.1951   -2.5751    0.0000 H   0  0  0  0  0  0  0  0  0  0  0  0
    8.1136   -0.2651    0.0000 H   0  0  0  0  0  0  0  0  0  0  0  0
    7.5961    1.6084    0.0000 H   0  0  0  0  0  0  0  0  0  0  0  0
    9.9060    2.4315    0.0000 H   0  0  0  0  0  0  0  0  0  0  0  0
    8.8853    2.7651    0.0000 H   0  0  0  0  0  0  0  0  0  0  0  0
    1.6900   -0.7282    0.0000 H   0  0  0  0  0  0  0  0  0  0  0  0
    1.4631   -1.5751    0.0000 H   0  0  0  0  0  0  0  0  0  0  0  0
    2.3100   -1.8020    0.0000 H   0  0  0  0  0  0  0  0  0  0  0  0
  1 18  1  0  0  0  0 
  1 22  1  0  0  0  0 
  2 10  1  0  0  0  0 
  2 21  2  0  0  0  0 
  3 14  1  0  0  0  0 
  3 16  2  0  0  0  0 
  4  5  1  0  0  0  0 
  4 19  1  0  0  0  0 
  4 39  1  0  0  0  0 
  5 21  1  0  0  0  0 
  5 40  1  0  0  0  0 
  6 21  1  0  0  0  0 
  6 41  1  0  0  0  0 
  6 42  1  0  0  0  0 
  7  8  1  0  0  0  0 
  7  9  1  0  0  0  0 
  7 23  1  0  0  0  0 
  7 24  1  0  0  0  0 
  8 10  1  0  0  0  0 
  8 25  1  0  0  0  0 
  8 26  1  0  0  0  0 
  9 12  1  0  0  0  0 
  9 27  1  0  0  0  0 
  9 28  1  0  0  0  0 
 10 29  1  0  0  0  0 
 10 30  1  0  0  0  0 
 11 13  1  0  0  0  0 
 11 14  2  0  0  0  0 
 11 15  1  0  0  0  0 
 12 31  1  0  0  0  0 
 12 32  1  0  0  0  0 
 12 33  1  0  0  0  0 
 13 16  1  0  0  0  0 
 13 19  2  0  0  0  0 
 14 17  1  0  0  0  0 
 15 18  2  0  0  0  0 
 15 34  1  0  0  0  0 
 16 35  1  0  0  0  0 
 17 20  2  0  0  0  0 
 17 36  1  0  0  0  0 
 18 20  1  0  0  0  0 
 19 37  1  0  0  0  0 
 20 38  1  0  0  0  0 
 22 43  1  0  0  0  0 
 22 44  1  0  0  0  0 
 22 45  1  0  0  0  0 
M  END
> <cdk:Title>
5362436

> <cdk:Remark>
null

> <PUBCHEM_COMPOUND_CID>
5362436

> <PUBCHEM_COMPOUND_CANONICALIZED>
1

> <PUBCHEM_CACTVS_COMPLEXITY>
432

> <PUBCHEM_CACTVS_HBOND_ACCEPTOR>
4

> <PUBCHEM_CACTVS_HBOND_DONOR>
3

> <PUBCHEM_CACTVS_ROTATABLE_BOND>
8

> <PUBCHEM_CACTVS_SUBSKEYS>
AAADceB7oAAAAAAAAAAAAAAAAAAAAQAAAAAwAAAAAAAAAEABAAAAHgAYAAAADAzBmAYzxoJiBACgAjRnZACCCAEgIgIMqIAmbJgMJiKEsZuAMCB0wBEI6AewwLAOAEABAAACAAAAgAIAAAQAAAAAAAAAAA==

> <PUBCHEM_IUPAC_OPENEYE_NAME>
1-[[(Z)-(5-methoxyindol-3-ylidene)methyl]amino]-2-pentyl-guanidine

> <PUBCHEM_IUPAC_CAS_NAME>
1-[[(Z)-(5-methoxy-3-indolylidene)methyl]amino]-2-pentylguanidine

> <PUBCHEM_IUPAC_NAME>
1-[[(Z)-(5-methoxyindol-3-ylidene)methyl]amino]-2-pentylguanidine

> <PUBCHEM_IUPAC_SYSTEMATIC_NAME>
1-[[(Z)-(5-methoxyindol-3-ylidene)methyl]amino]-2-pentyl-guanidine

> <PUBCHEM_IUPAC_TRADITIONAL_NAME>
2-amyl-1-[[(Z)-(5-methoxyindol-3-ylidene)methyl]amino]guanidine

> <PUBCHEM_IUPAC_INCHI>
InChI=1S/C16H23N5O/c1-3-4-5-8-18-16(17)21-20-11-12-10-19-15-7-6-13(22-2)9-14(12)15/h6-7,9-11,20H,3-5,8H2,1-2H3,(H3,17,18,21)/b12-11+

> <PUBCHEM_IUPAC_INCHIKEY>
JWXDRFUZDKKGDV-VAWYXSNFSA-N

> <PUBCHEM_XLOGP3_AA>
2.1

> <PUBCHEM_EXACT_MASS>
301.19026

> <PUBCHEM_MOLECULAR_FORMULA>
C16H23N5O

> <PUBCHEM_MOLECULAR_WEIGHT>
301.38672

> <PUBCHEM_OPENEYE_CAN_SMILES>
CCCCCN=C(N)NNC=C1C=NC2=C1C=C(C=C2)OC

> <PUBCHEM_OPENEYE_ISO_SMILES>
CCCCCN=C(N)NN/C=C/1\C=NC2=C1C=C(C=C2)OC

> <PUBCHEM_CACTVS_TPSA>
84

> <PUBCHEM_MONOISOTOPIC_WEIGHT>
301.19026

> <PUBCHEM_TOTAL_CHARGE>
0

> <PUBCHEM_HEAVY_ATOM_COUNT>
22

> <PUBCHEM_ATOM_DEF_STEREO_COUNT>
0

> <PUBCHEM_ATOM_UDEF_STEREO_COUNT>
0

> <PUBCHEM_BOND_DEF_STEREO_COUNT>
1

> <PUBCHEM_BOND_UDEF_STEREO_COUNT>
0

> <PUBCHEM_ISOTOPIC_ATOM_COUNT>
0

> <PUBCHEM_COMPONENT_COUNT>
1

> <PUBCHEM_CACTVS_TAUTO_COUNT>
6

> <PUBCHEM_COORDINATE_TYPE>
1
5
255

> <PUBCHEM_BONDANNOTATIONS>
11  14  8
11  15  8
14  17  8
15  18  8
17  20  8
18  20  8

> <DRUG_ID>
w60

> <DRUG_NAME>
Tegaserod

$$$$
4619
  CDK     0927151942
null
 57 57  0  0  0  0  0  0  0  0999 V2000
    4.3660   -0.7500    0.0000 O   0  0  0  0  0  0  0  0  0  0  0  0
    2.6340   -0.7500    0.0000 O   0  0  0  0  0  0  0  0  0  0  0  0
    5.2320    1.7500    0.0000 O   0  0  0  0  0  0  0  0  0  0  0  0
    6.9641    3.7500    0.0000 N   0  0  0  0  0  0  0  0  0  0  0  0
    3.5000   -2.2500    0.0000 C   0  0  0  0  0  0  0  0  0  0  0  0
    4.5000   -2.2500    0.0000 C   0  0  0  0  0  0  0  0  0  0  0  0
    2.5000   -2.2500    0.0000 C   0  0  0  0  0  0  0  0  0  0  0  0
    3.5000   -3.2500    0.0000 C   0  0  0  0  0  0  0  0  0  0  0  0
    3.5000   -1.2500    0.0000 C   0  0  0  0  0  0  0  0  0  0  0  0
    2.0000   -1.3840    0.0000 C   0  0  0  0  0  0  0  0  0  0  0  0
    5.0000   -1.3840    0.0000 C   0  0  0  0  0  0  0  0  0  0  0  0
    2.6340   -3.7500    0.0000 C   0  0  0  0  0  0  0  0  0  0  0  0
    4.3660   -3.7500    0.0000 C   0  0  0  0  0  0  0  0  0  0  0  0
    4.3660    0.2500    0.0000 C   0  0  0  0  0  0  0  0  0  0  0  0
    2.6340   -4.7500    0.0000 C   0  0  0  0  0  0  0  0  0  0  0  0
    4.3660   -4.7500    0.0000 C   0  0  0  0  0  0  0  0  0  0  0  0
    6.0981    3.2500    0.0000 C   0  0  0  0  0  0  0  0  0  0  0  0
    5.2320    0.7500    0.0000 C   0  0  0  0  0  0  0  0  0  0  0  0
    6.0981    2.2500    0.0000 C   0  0  0  0  0  0  0  0  0  0  0  0
    3.5000   -5.2500    0.0000 C   0  0  0  0  0  0  0  0  0  0  0  0
    6.9641    4.7500    0.0000 C   0  0  0  0  0  0  0  0  0  0  0  0
    7.8301    3.2500    0.0000 C   0  0  0  0  0  0  0  0  0  0  0  0
    7.8301    5.2500    0.0000 C   0  0  0  0  0  0  0  0  0  0  0  0
    8.6962    3.7500    0.0000 C   0  0  0  0  0  0  0  0  0  0  0  0
    1.9174   -2.4620    0.0000 H   0  0  0  0  0  0  0  0  0  0  0  0
    2.6077   -2.8606    0.0000 H   0  0  0  0  0  0  0  0  0  0  0  0
    4.3923   -2.8606    0.0000 H   0  0  0  0  0  0  0  0  0  0  0  0
    5.0826   -2.4620    0.0000 H   0  0  0  0  0  0  0  0  0  0  0  0
    5.5369   -1.6940    0.0000 H   0  0  0  0  0  0  0  0  0  0  0  0
    2.5369   -1.0740    0.0000 H   0  0  0  0  0  0  0  0  0  0  0  0
    5.3100   -0.8470    0.0000 H   0  0  0  0  0  0  0  0  0  0  0  0
    4.4631   -1.0740    0.0000 H   0  0  0  0  0  0  0  0  0  0  0  0
    1.6900   -0.8470    0.0000 H   0  0  0  0  0  0  0  0  0  0  0  0
    1.4631   -1.6940    0.0000 H   0  0  0  0  0  0  0  0  0  0  0  0
    2.0970   -3.4400    0.0000 H   0  0  0  0  0  0  0  0  0  0  0  0
    4.9030   -3.4400    0.0000 H   0  0  0  0  0  0  0  0  0  0  0  0
    4.1540    0.8326    0.0000 H   0  0  0  0  0  0  0  0  0  0  0  0
    3.7554    0.1423    0.0000 H   0  0  0  0  0  0  0  0  0  0  0  0
    5.8860    3.8326    0.0000 H   0  0  0  0  0  0  0  0  0  0  0  0
    5.4875    3.1423    0.0000 H   0  0  0  0  0  0  0  0  0  0  0  0
    2.0970   -5.0600    0.0000 H   0  0  0  0  0  0  0  0  0  0  0  0
    4.9030   -5.0600    0.0000 H   0  0  0  0  0  0  0  0  0  0  0  0
    5.4441    0.1674    0.0000 H   0  0  0  0  0  0  0  0  0  0  0  0
    5.8426    0.8577    0.0000 H   0  0  0  0  0  0  0  0  0  0  0  0
    6.3101    1.6674    0.0000 H   0  0  0  0  0  0  0  0  0  0  0  0
    6.7087    2.3577    0.0000 H   0  0  0  0  0  0  0  0  0  0  0  0
    3.5000   -5.8700    0.0000 H   0  0  0  0  0  0  0  0  0  0  0  0
    7.4316    2.7750    0.0000 H   0  0  0  0  0  0  0  0  0  0  0  0
    8.2287    2.7750    0.0000 H   0  0  0  0  0  0  0  0  0  0  0  0
    6.7520    5.3326    0.0000 H   0  0  0  0  0  0  0  0  0  0  0  0
    6.3535    4.6423    0.0000 H   0  0  0  0  0  0  0  0  0  0  0  0
    8.1401    4.7131    0.0000 H   0  0  0  0  0  0  0  0  0  0  0  0
    8.3671    5.5600    0.0000 H   0  0  0  0  0  0  0  0  0  0  0  0
    9.0062    3.2131    0.0000 H   0  0  0  0  0  0  0  0  0  0  0  0
    9.2331    4.0600    0.0000 H   0  0  0  0  0  0  0  0  0  0  0  0
    8.3862    4.2869    0.0000 H   0  0  0  0  0  0  0  0  0  0  0  0
    7.5201    5.7869    0.0000 H   0  0  0  0  0  0  0  0  0  0  0  0
  1  9  1  0  0  0  0 
  1 14  1  0  0  0  0 
  2  9  2  0  0  0  0 
  3 18  1  0  0  0  0 
  3 19  1  0  0  0  0 
  4 17  1  0  0  0  0 
  4 21  1  0  0  0  0 
  4 22  1  0  0  0  0 
  5  6  1  0  0  0  0 
  5  7  1  0  0  0  0 
  5  8  1  0  0  0  0 
  5  9  1  0  0  0  0 
  6 11  1  0  0  0  0 
  6 27  1  0  0  0  0 
  6 28  1  0  0  0  0 
  7 10  1  0  0  0  0 
  7 25  1  0  0  0  0 
  7 26  1  0  0  0  0 
  8 12  2  0  0  0  0 
  8 13  1  0  0  0  0 
 10 30  1  0  0  0  0 
 10 33  1  0  0  0  0 
 10 34  1  0  0  0  0 
 11 29  1  0  0  0  0 
 11 31  1  0  0  0  0 
 11 32  1  0  0  0  0 
 12 15  1  0  0  0  0 
 12 35  1  0  0  0  0 
 13 16  2  0  0  0  0 
 13 36  1  0  0  0  0 
 14 18  1  0  0  0  0 
 14 37  1  0  0  0  0 
 14 38  1  0  0  0  0 
 15 20  2  0  0  0  0 
 15 41  1  0  0  0  0 
 16 20  1  0  0  0  0 
 16 42  1  0  0  0  0 
 17 19  1  0  0  0  0 
 17 39  1  0  0  0  0 
 17 40  1  0  0  0  0 
 18 43  1  0  0  0  0 
 18 44  1  0  0  0  0 
 19 45  1  0  0  0  0 
 19 46  1  0  0  0  0 
 20 47  1  0  0  0  0 
 21 23  1  0  0  0  0 
 21 50  1  0  0  0  0 
 21 51  1  0  0  0  0 
 22 24  1  0  0  0  0 
 22 48  1  0  0  0  0 
 22 49  1  0  0  0  0 
 23 52  1  0  0  0  0 
 23 53  1  0  0  0  0 
 23 57  1  0  0  0  0 
 24 54  1  0  0  0  0 
 24 55  1  0  0  0  0 
 24 56  1  0  0  0  0 
M  END
> <cdk:Title>
4619

> <cdk:Remark>
null

> <PUBCHEM_COMPOUND_CID>
4619

> <PUBCHEM_COMPOUND_CANONICALIZED>
1

> <PUBCHEM_CACTVS_COMPLEXITY>
332

> <PUBCHEM_CACTVS_HBOND_ACCEPTOR>
4

> <PUBCHEM_CACTVS_HBOND_DONOR>
0

> <PUBCHEM_CACTVS_ROTATABLE_BOND>
13

> <PUBCHEM_CACTVS_SUBSKEYS>
AAADcfB6MAAAAAAAAAAAAAAAAAAAAAAAAAAwAAAAAAAAAAABAAAAHgAAAAAADgDhmAYyCIMABACIAiDSCAACAAAgAAAIiAEIAIgLIDKAFRCDIAAkwAGaiAeIyOCPgAAAAAAAAAAAAAAAAAAAAAAAAAAAAA==

> <PUBCHEM_IUPAC_OPENEYE_NAME>
2-[2-(diethylamino)ethoxy]ethyl 2-ethyl-2-phenyl-butanoate

> <PUBCHEM_IUPAC_CAS_NAME>
2-ethyl-2-phenylbutanoic acid 2-[2-(diethylamino)ethoxy]ethyl ester

> <PUBCHEM_IUPAC_NAME>
2-[2-(diethylamino)ethoxy]ethyl 2-ethyl-2-phenylbutanoate

> <PUBCHEM_IUPAC_SYSTEMATIC_NAME>
2-[2-(diethylamino)ethoxy]ethyl 2-ethyl-2-phenyl-butanoate

> <PUBCHEM_IUPAC_TRADITIONAL_NAME>
2-ethyl-2-phenyl-butyric acid 2-[2-(diethylamino)ethoxy]ethyl ester

> <PUBCHEM_IUPAC_INCHI>
InChI=1S/C20H33NO3/c1-5-20(6-2,18-12-10-9-11-13-18)19(22)24-17-16-23-15-14-21(7-3)8-4/h9-13H,5-8,14-17H2,1-4H3

> <PUBCHEM_IUPAC_INCHIKEY>
IQADUMSPOQKAAO-UHFFFAOYSA-N

> <PUBCHEM_XLOGP3_AA>
4

> <PUBCHEM_EXACT_MASS>
335.246044

> <PUBCHEM_MOLECULAR_FORMULA>
C20H33NO3

> <PUBCHEM_MOLECULAR_WEIGHT>
335.48092

> <PUBCHEM_OPENEYE_CAN_SMILES>
CCC(CC)(C1=CC=CC=C1)C(=O)OCCOCCN(CC)CC

> <PUBCHEM_OPENEYE_ISO_SMILES>
CCC(CC)(C1=CC=CC=C1)C(=O)OCCOCCN(CC)CC

> <PUBCHEM_CACTVS_TPSA>
38.8

> <PUBCHEM_MONOISOTOPIC_WEIGHT>
335.246044

> <PUBCHEM_TOTAL_CHARGE>
0

> <PUBCHEM_HEAVY_ATOM_COUNT>
24

> <PUBCHEM_ATOM_DEF_STEREO_COUNT>
0

> <PUBCHEM_ATOM_UDEF_STEREO_COUNT>
0

> <PUBCHEM_BOND_DEF_STEREO_COUNT>
0

> <PUBCHEM_BOND_UDEF_STEREO_COUNT>
0

> <PUBCHEM_ISOTOPIC_ATOM_COUNT>
0

> <PUBCHEM_COMPONENT_COUNT>
1

> <PUBCHEM_CACTVS_TAUTO_COUNT>
1

> <PUBCHEM_COORDINATE_TYPE>
1
5
255

> <PUBCHEM_BONDANNOTATIONS>
12  15  8
13  16  8
15  20  8
16  20  8
8  12  8
8  13  8

> <DRUG_ID>
w61

> <DRUG_NAME>
Oxeladin

$$$$
25215
  CDK     0927151942
null
 37 39  0  0  0  0  0  0  0  0999 V2000
    7.0444    0.0492    0.0000 Cl  0  0  0  0  0  0  0  0  0  0  0  0
    2.0000   -2.6577    0.0000 O   0  0  0  0  0  0  0  0  0  0  0  0
    3.5984   -2.0984    0.0000 N   0  0  0  0  0  0  0  0  0  0  0  0
    2.6235   -0.0740    0.0000 N   0  0  0  0  0  0  0  0  0  0  0  0
    3.3104    2.7786    0.0000 C   0  0  0  0  0  0  0  0  0  0  0  0
    3.0879    1.8037    0.0000 C   0  0  0  0  0  0  0  0  0  0  0  0
    4.2660    3.0734    0.0000 C   0  0  0  0  0  0  0  0  0  0  0  0
    3.8209    1.1235    0.0000 C   0  0  0  0  0  0  0  0  0  0  0  0
    4.9990    2.3932    0.0000 C   0  0  0  0  0  0  0  0  0  0  0  0
    4.7765    1.4182    0.0000 C   0  0  0  0  0  0  0  0  0  0  0  0
    3.5984    0.1486    0.0000 C   0  0  0  0  0  0  0  0  0  0  0  0
    4.3802   -0.4749    0.0000 C   0  0  0  0  0  0  0  0  0  0  0  0
    4.3802   -1.4749    0.0000 C   0  0  0  0  0  0  0  0  0  0  0  0
    2.1896   -0.9749    0.0000 C   0  0  0  0  0  0  0  0  0  0  0  0
    5.2742    0.0597    0.0000 C   0  0  0  0  0  0  0  0  0  0  0  0
    2.6235   -1.8759    0.0000 C   0  0  0  0  0  0  0  0  0  0  0  0
    5.2742   -2.0096    0.0000 C   0  0  0  0  0  0  0  0  0  0  0  0
    3.8209   -3.0734    0.0000 C   0  0  0  0  0  0  0  0  0  0  0  0
    6.1803   -0.4541    0.0000 C   0  0  0  0  0  0  0  0  0  0  0  0
    6.1803   -1.4957    0.0000 C   0  0  0  0  0  0  0  0  0  0  0  0
    3.2333    3.3938    0.0000 H   0  0  0  0  0  0  0  0  0  0  0  0
    2.6912    2.8095    0.0000 H   0  0  0  0  0  0  0  0  0  0  0  0
    2.5166    2.0445    0.0000 H   0  0  0  0  0  0  0  0  0  0  0  0
    2.7515    1.2828    0.0000 H   0  0  0  0  0  0  0  0  0  0  0  0
    4.7602    3.4477    0.0000 H   0  0  0  0  0  0  0  0  0  0  0  0
    3.9831    3.6251    0.0000 H   0  0  0  0  0  0  0  0  0  0  0  0
    5.5704    2.1523    0.0000 H   0  0  0  0  0  0  0  0  0  0  0  0
    5.3354    2.9140    0.0000 H   0  0  0  0  0  0  0  0  0  0  0  0
    5.2310    0.9965    0.0000 H   0  0  0  0  0  0  0  0  0  0  0  0
    1.7049   -0.5884    0.0000 H   0  0  0  0  0  0  0  0  0  0  0  0
    1.7049   -1.3615    0.0000 H   0  0  0  0  0  0  0  0  0  0  0  0
    5.2670    0.6797    0.0000 H   0  0  0  0  0  0  0  0  0  0  0  0
    5.2670   -2.6296    0.0000 H   0  0  0  0  0  0  0  0  0  0  0  0
    3.2165   -3.2113    0.0000 H   0  0  0  0  0  0  0  0  0  0  0  0
    3.9589   -3.6778    0.0000 H   0  0  0  0  0  0  0  0  0  0  0  0
    4.4254   -2.9354    0.0000 H   0  0  0  0  0  0  0  0  0  0  0  0
    6.7160   -1.8078    0.0000 H   0  0  0  0  0  0  0  0  0  0  0  0
  1 19  1  0  0  0  0 
  2 16  2  0  0  0  0 
  3 13  1  0  0  0  0 
  3 16  1  0  0  0  0 
  3 18  1  0  0  0  0 
  4 11  2  0  0  0  0 
  4 14  1  0  0  0  0 
  5  6  1  0  0  0  0 
  5  7  1  0  0  0  0 
  5 21  1  0  0  0  0 
  5 22  1  0  0  0  0 
  6  8  1  0  0  0  0 
  6 23  1  0  0  0  0 
  6 24  1  0  0  0  0 
  7  9  1  0  0  0  0 
  7 25  1  0  0  0  0 
  7 26  1  0  0  0  0 
  8 10  2  0  0  0  0 
  8 11  1  0  0  0  0 
  9 10  1  0  0  0  0 
  9 27  1  0  0  0  0 
  9 28  1  0  0  0  0 
 10 29  1  0  0  0  0 
 11 12  1  0  0  0  0 
 12 13  2  0  0  0  0 
 12 15  1  0  0  0  0 
 13 17  1  0  0  0  0 
 14 16  1  0  0  0  0 
 14 30  1  0  0  0  0 
 14 31  1  0  0  0  0 
 15 19  2  0  0  0  0 
 15 32  1  0  0  0  0 
 17 20  2  0  0  0  0 
 17 33  1  0  0  0  0 
 18 34  1  0  0  0  0 
 18 35  1  0  0  0  0 
 18 36  1  0  0  0  0 
 19 20  1  0  0  0  0 
 20 37  1  0  0  0  0 
M  END
> <cdk:Title>
25215

> <cdk:Remark>
null

> <PUBCHEM_COMPOUND_CID>
25215

> <PUBCHEM_COMPOUND_CANONICALIZED>
1

> <PUBCHEM_CACTVS_COMPLEXITY>
457

> <PUBCHEM_CACTVS_HBOND_ACCEPTOR>
2

> <PUBCHEM_CACTVS_HBOND_DONOR>
0

> <PUBCHEM_CACTVS_ROTATABLE_BOND>
1

> <PUBCHEM_CACTVS_SUBSKEYS>
AAADceB7IAAEAAAAAAAAAAAAAAAAAAAAAAAwQAAABAAAAAABAAAAHgIAAAAADArBmCQywIMAAACoAyVyVACCAAAhBwAIiACoZpgIYKLBk5GUIAhghgDIyAcQgMAOAABAIAACAAAAAIBAAAQAAAAAAAAAAA==

> <PUBCHEM_IUPAC_OPENEYE_NAME>
7-chloro-5-(cyclohexen-1-yl)-1-methyl-3H-1,4-benzodiazepin-2-one

> <PUBCHEM_IUPAC_CAS_NAME>
7-chloro-5-(1-cyclohexenyl)-1-methyl-3H-1,4-benzodiazepin-2-one

> <PUBCHEM_IUPAC_NAME>
7-chloro-5-(cyclohexen-1-yl)-1-methyl-3H-1,4-benzodiazepin-2-one

> <PUBCHEM_IUPAC_SYSTEMATIC_NAME>
7-chloranyl-5-(cyclohexen-1-yl)-1-methyl-3H-1,4-benzodiazepin-2-one

> <PUBCHEM_IUPAC_TRADITIONAL_NAME>
7-chloro-5-(cyclohexen-1-yl)-1-methyl-3H-1,4-benzodiazepin-2-one

> <PUBCHEM_IUPAC_INCHI>
InChI=1S/C16H17ClN2O/c1-19-14-8-7-12(17)9-13(14)16(18-10-15(19)20)11-5-3-2-4-6-11/h5,7-9H,2-4,6,10H2,1H3

> <PUBCHEM_IUPAC_INCHIKEY>
IQWYAQCHYZHJOS-UHFFFAOYSA-N

> <PUBCHEM_XLOGP3>
3.2

> <PUBCHEM_EXACT_MASS>
288.102941

> <PUBCHEM_MOLECULAR_FORMULA>
C16H17ClN2O

> <PUBCHEM_MOLECULAR_WEIGHT>
288.77198

> <PUBCHEM_OPENEYE_CAN_SMILES>
CN1C(=O)CN=C(C2=C1C=CC(=C2)Cl)C3=CCCCC3

> <PUBCHEM_OPENEYE_ISO_SMILES>
CN1C(=O)CN=C(C2=C1C=CC(=C2)Cl)C3=CCCCC3

> <PUBCHEM_CACTVS_TPSA>
32.7

> <PUBCHEM_MONOISOTOPIC_WEIGHT>
288.102941

> <PUBCHEM_TOTAL_CHARGE>
0

> <PUBCHEM_HEAVY_ATOM_COUNT>
20

> <PUBCHEM_ATOM_DEF_STEREO_COUNT>
0

> <PUBCHEM_ATOM_UDEF_STEREO_COUNT>
0

> <PUBCHEM_BOND_DEF_STEREO_COUNT>
0

> <PUBCHEM_BOND_UDEF_STEREO_COUNT>
0

> <PUBCHEM_ISOTOPIC_ATOM_COUNT>
0

> <PUBCHEM_COMPONENT_COUNT>
1

> <PUBCHEM_CACTVS_TAUTO_COUNT>
3

> <PUBCHEM_COORDINATE_TYPE>
1
5
255

> <PUBCHEM_BONDANNOTATIONS>
12  13  8
12  15  8
13  17  8
15  19  8
17  20  8
19  20  8

> <DRUG_ID>
w62

> <DRUG_NAME>
Tetrazepam

$$$$
2482
  CDK     0927151942
null
 29 29  0  0  0  0  0  0  0  0999 V2000
    3.7320    0.9050    0.0000 O   0  0  0  0  0  0  0  0  0  0  0  0
    2.0000    0.9050    0.0000 O   0  0  0  0  0  0  0  0  0  0  0  0
    2.8660   -3.5950    0.0000 N   0  0  0  0  0  0  0  0  0  0  0  0
    4.5981    2.4050    0.0000 C   0  0  0  0  0  0  0  0  0  0  0  0
    4.5981    3.4050    0.0000 C   0  0  0  0  0  0  0  0  0  0  0  0
    3.7320    1.9050    0.0000 C   0  0  0  0  0  0  0  0  0  0  0  0
    5.4641    3.9050    0.0000 C   0  0  0  0  0  0  0  0  0  0  0  0
    2.8660   -0.5950    0.0000 C   0  0  0  0  0  0  0  0  0  0  0  0
    2.8660    0.4050    0.0000 C   0  0  0  0  0  0  0  0  0  0  0  0
    2.0000   -1.0950    0.0000 C   0  0  0  0  0  0  0  0  0  0  0  0
    3.7320   -1.0950    0.0000 C   0  0  0  0  0  0  0  0  0  0  0  0
    2.8660   -2.5950    0.0000 C   0  0  0  0  0  0  0  0  0  0  0  0
    2.0000   -2.0950    0.0000 C   0  0  0  0  0  0  0  0  0  0  0  0
    3.7320   -2.0950    0.0000 C   0  0  0  0  0  0  0  0  0  0  0  0
    4.8101    1.8224    0.0000 H   0  0  0  0  0  0  0  0  0  0  0  0
    5.2087    2.5127    0.0000 H   0  0  0  0  0  0  0  0  0  0  0  0
    4.3860    3.9876    0.0000 H   0  0  0  0  0  0  0  0  0  0  0  0
    3.9875    3.2973    0.0000 H   0  0  0  0  0  0  0  0  0  0  0  0
    3.5200    2.4876    0.0000 H   0  0  0  0  0  0  0  0  0  0  0  0
    3.1215    1.7973    0.0000 H   0  0  0  0  0  0  0  0  0  0  0  0
    5.7741    3.3681    0.0000 H   0  0  0  0  0  0  0  0  0  0  0  0
    6.0010    4.2150    0.0000 H   0  0  0  0  0  0  0  0  0  0  0  0
    5.1541    4.4419    0.0000 H   0  0  0  0  0  0  0  0  0  0  0  0
    1.4631   -0.7850    0.0000 H   0  0  0  0  0  0  0  0  0  0  0  0
    4.2690   -0.7850    0.0000 H   0  0  0  0  0  0  0  0  0  0  0  0
    1.4631   -2.4050    0.0000 H   0  0  0  0  0  0  0  0  0  0  0  0
    4.2690   -2.4050    0.0000 H   0  0  0  0  0  0  0  0  0  0  0  0
    2.3291   -3.9050    0.0000 H   0  0  0  0  0  0  0  0  0  0  0  0
    3.4030   -3.9050    0.0000 H   0  0  0  0  0  0  0  0  0  0  0  0
  1  6  1  0  0  0  0 
  1  9  1  0  0  0  0 
  2  9  2  0  0  0  0 
  3 12  1  0  0  0  0 
  3 28  1  0  0  0  0 
  3 29  1  0  0  0  0 
  4  5  1  0  0  0  0 
  4  6  1  0  0  0  0 
  4 15  1  0  0  0  0 
  4 16  1  0  0  0  0 
  5  7  1  0  0  0  0 
  5 17  1  0  0  0  0 
  5 18  1  0  0  0  0 
  6 19  1  0  0  0  0 
  6 20  1  0  0  0  0 
  7 21  1  0  0  0  0 
  7 22  1  0  0  0  0 
  7 23  1  0  0  0  0 
  8  9  1  0  0  0  0 
  8 10  2  0  0  0  0 
  8 11  1  0  0  0  0 
 10 13  1  0  0  0  0 
 10 24  1  0  0  0  0 
 11 14  2  0  0  0  0 
 11 25  1  0  0  0  0 
 12 13  2  0  0  0  0 
 12 14  1  0  0  0  0 
 13 26  1  0  0  0  0 
 14 27  1  0  0  0  0 
M  END
> <cdk:Title>
2482

> <cdk:Remark>
null

> <PUBCHEM_COMPOUND_CID>
2482

> <PUBCHEM_COMPOUND_CANONICALIZED>
1

> <PUBCHEM_CACTVS_COMPLEXITY>
174

> <PUBCHEM_CACTVS_HBOND_ACCEPTOR>
3

> <PUBCHEM_CACTVS_HBOND_DONOR>
1

> <PUBCHEM_CACTVS_ROTATABLE_BOND>
5

> <PUBCHEM_CACTVS_SUBSKEYS>
AAADccByMAAAAAAAAAAAAAAAAAAAAAAAAAAwAAAAAAAAAAABAAAAHgAQAAAADAihmAIyyIBABACIAiTSSACCAAAkAgAIiAEAbMgIJjKAtZmCMQBk0AEI6YeY2SGeCAAAAAAAAAAQAAAAAAAAAAAAAAAAAA==

> <PUBCHEM_IUPAC_OPENEYE_NAME>
butyl 4-aminobenzoate

> <PUBCHEM_IUPAC_CAS_NAME>
4-aminobenzoic acid butyl ester

> <PUBCHEM_IUPAC_NAME>
butyl 4-aminobenzoate

> <PUBCHEM_IUPAC_SYSTEMATIC_NAME>
butyl 4-azanylbenzoate

> <PUBCHEM_IUPAC_TRADITIONAL_NAME>
4-aminobenzoic acid butyl ester

> <PUBCHEM_IUPAC_INCHI>
InChI=1S/C11H15NO2/c1-2-3-8-14-11(13)9-4-6-10(12)7-5-9/h4-7H,2-3,8,12H2,1H3

> <PUBCHEM_IUPAC_INCHIKEY>
IUWVALYLNVXWKX-UHFFFAOYSA-N

> <PUBCHEM_XLOGP3>
2.9

> <PUBCHEM_EXACT_MASS>
193.110279

> <PUBCHEM_MOLECULAR_FORMULA>
C11H15NO2

> <PUBCHEM_MOLECULAR_WEIGHT>
193.2423

> <PUBCHEM_OPENEYE_CAN_SMILES>
CCCCOC(=O)C1=CC=C(C=C1)N

> <PUBCHEM_OPENEYE_ISO_SMILES>
CCCCOC(=O)C1=CC=C(C=C1)N

> <PUBCHEM_CACTVS_TPSA>
52.3

> <PUBCHEM_MONOISOTOPIC_WEIGHT>
193.110279

> <PUBCHEM_TOTAL_CHARGE>
0

> <PUBCHEM_HEAVY_ATOM_COUNT>
14

> <PUBCHEM_ATOM_DEF_STEREO_COUNT>
0

> <PUBCHEM_ATOM_UDEF_STEREO_COUNT>
0

> <PUBCHEM_BOND_DEF_STEREO_COUNT>
0

> <PUBCHEM_BOND_UDEF_STEREO_COUNT>
0

> <PUBCHEM_ISOTOPIC_ATOM_COUNT>
0

> <PUBCHEM_COMPONENT_COUNT>
1

> <PUBCHEM_CACTVS_TAUTO_COUNT>
3

> <PUBCHEM_COORDINATE_TYPE>
1
5
255

> <PUBCHEM_BONDANNOTATIONS>
10  13  8
11  14  8
12  13  8
12  14  8
8  10  8
8  11  8

> <DRUG_ID>
w63

> <DRUG_NAME>
Butamben

$$$$
71329
  CDK     0927151942
null
 56 57  0  0  0  0  0  0  0  0999 V2000
    7.1962    6.2500    0.0000 S   0  0  0  0  0  0  0  0  0  0  0  0
    2.8660   -6.2500    0.0000 S   0  0  0  0  0  0  0  0  0  0  0  0
    3.7320   -1.7500    0.0000 O   0  0  0  0  0  0  0  0  0  0  0  0
    6.6962    7.1160    0.0000 O   0  0  0  0  0  0  0  0  0  0  0  0
    7.6962    5.3840    0.0000 O   0  0  0  0  0  0  0  0  0  0  0  0
    3.3660   -7.1160    0.0000 O   0  0  0  0  0  0  0  0  0  0  0  0
    2.3660   -5.3840    0.0000 O   0  0  0  0  0  0  0  0  0  0  0  0
    5.4641    0.2500    0.0000 N   0  0  3  0  0  0  0  0  0  0  0  0
    6.3301    5.7500    0.0000 N   0  0  0  0  0  0  0  0  0  0  0  0
    3.7320   -5.7500    0.0000 N   0  0  0  0  0  0  0  0  0  0  0  0
    5.4641    1.2500    0.0000 C   0  0  0  0  0  0  0  0  0  0  0  0
    6.3301    1.7500    0.0000 C   0  0  0  0  0  0  0  0  0  0  0  0
    4.5981   -0.2500    0.0000 C   0  0  0  0  0  0  0  0  0  0  0  0
    6.3301    2.7500    0.0000 C   0  0  0  0  0  0  0  0  0  0  0  0
    4.5981   -1.2500    0.0000 C   0  0  0  0  0  0  0  0  0  0  0  0
    6.3301   -0.2500    0.0000 C   0  0  0  0  0  0  0  0  0  0  0  0
    7.1962    3.2500    0.0000 C   0  0  0  0  0  0  0  0  0  0  0  0
    5.4641    3.2500    0.0000 C   0  0  0  0  0  0  0  0  0  0  0  0
    6.3301    4.7500    0.0000 C   0  0  0  0  0  0  0  0  0  0  0  0
    7.1962    4.2500    0.0000 C   0  0  0  0  0  0  0  0  0  0  0  0
    5.4641    4.2500    0.0000 C   0  0  0  0  0  0  0  0  0  0  0  0
    3.7320   -2.7500    0.0000 C   0  0  0  0  0  0  0  0  0  0  0  0
    3.7320   -4.7500    0.0000 C   0  0  0  0  0  0  0  0  0  0  0  0
    2.8660   -3.2500    0.0000 C   0  0  0  0  0  0  0  0  0  0  0  0
    4.5981   -3.2500    0.0000 C   0  0  0  0  0  0  0  0  0  0  0  0
    2.8660   -4.2500    0.0000 C   0  0  0  0  0  0  0  0  0  0  0  0
    4.5981   -4.2500    0.0000 C   0  0  0  0  0  0  0  0  0  0  0  0
    8.0622    6.7500    0.0000 C   0  0  0  0  0  0  0  0  0  0  0  0
    2.0000   -6.7500    0.0000 C   0  0  0  0  0  0  0  0  0  0  0  0
    5.2520    1.8326    0.0000 H   0  0  0  0  0  0  0  0  0  0  0  0
    4.8535    1.1423    0.0000 H   0  0  0  0  0  0  0  0  0  0  0  0
    6.5422    1.1674    0.0000 H   0  0  0  0  0  0  0  0  0  0  0  0
    6.9407    1.8577    0.0000 H   0  0  0  0  0  0  0  0  0  0  0  0
    4.3860    0.3326    0.0000 H   0  0  0  0  0  0  0  0  0  0  0  0
    3.9875   -0.3577    0.0000 H   0  0  0  0  0  0  0  0  0  0  0  0
    4.8101   -1.8326    0.0000 H   0  0  0  0  0  0  0  0  0  0  0  0
    5.2087   -1.1423    0.0000 H   0  0  0  0  0  0  0  0  0  0  0  0
    6.0201   -0.7869    0.0000 H   0  0  0  0  0  0  0  0  0  0  0  0
    6.8671   -0.5600    0.0000 H   0  0  0  0  0  0  0  0  0  0  0  0
    6.6401    0.2869    0.0000 H   0  0  0  0  0  0  0  0  0  0  0  0
    7.7331    2.9400    0.0000 H   0  0  0  0  0  0  0  0  0  0  0  0
    4.9272    2.9400    0.0000 H   0  0  0  0  0  0  0  0  0  0  0  0
    7.7331    4.5600    0.0000 H   0  0  0  0  0  0  0  0  0  0  0  0
    4.9272    4.5600    0.0000 H   0  0  0  0  0  0  0  0  0  0  0  0
    5.7932    6.0600    0.0000 H   0  0  0  0  0  0  0  0  0  0  0  0
    2.3291   -2.9400    0.0000 H   0  0  0  0  0  0  0  0  0  0  0  0
    5.1350   -2.9400    0.0000 H   0  0  0  0  0  0  0  0  0  0  0  0
    2.3291   -4.5600    0.0000 H   0  0  0  0  0  0  0  0  0  0  0  0
    5.1350   -4.5600    0.0000 H   0  0  0  0  0  0  0  0  0  0  0  0
    4.2690   -6.0600    0.0000 H   0  0  0  0  0  0  0  0  0  0  0  0
    8.3722    6.2131    0.0000 H   0  0  0  0  0  0  0  0  0  0  0  0
    8.5991    7.0600    0.0000 H   0  0  0  0  0  0  0  0  0  0  0  0
    7.7522    7.2869    0.0000 H   0  0  0  0  0  0  0  0  0  0  0  0
    1.6900   -6.2131    0.0000 H   0  0  0  0  0  0  0  0  0  0  0  0
    1.4631   -7.0600    0.0000 H   0  0  0  0  0  0  0  0  0  0  0  0
    2.3100   -7.2869    0.0000 H   0  0  0  0  0  0  0  0  0  0  0  0
  1  4  2  0  0  0  0 
  1  5  2  0  0  0  0 
  1  9  1  0  0  0  0 
  1 28  1  0  0  0  0 
  2  6  2  0  0  0  0 
  2  7  2  0  0  0  0 
  2 10  1  0  0  0  0 
  2 29  1  0  0  0  0 
  3 15  1  0  0  0  0 
  3 22  1  0  0  0  0 
  8 11  1  0  0  0  0 
  8 13  1  0  0  0  0 
  8 16  1  0  0  0  0 
  9 19  1  0  0  0  0 
  9 45  1  0  0  0  0 
 10 23  1  0  0  0  0 
 10 50  1  0  0  0  0 
 11 12  1  0  0  0  0 
 11 30  1  0  0  0  0 
 11 31  1  0  0  0  0 
 12 14  1  0  0  0  0 
 12 32  1  0  0  0  0 
 12 33  1  0  0  0  0 
 13 15  1  0  0  0  0 
 13 34  1  0  0  0  0 
 13 35  1  0  0  0  0 
 14 17  2  0  0  0  0 
 14 18  1  0  0  0  0 
 15 36  1  0  0  0  0 
 15 37  1  0  0  0  0 
 16 38  1  0  0  0  0 
 16 39  1  0  0  0  0 
 16 40  1  0  0  0  0 
 17 20  1  0  0  0  0 
 17 41  1  0  0  0  0 
 18 21  2  0  0  0  0 
 18 42  1  0  0  0  0 
 19 20  2  0  0  0  0 
 19 21  1  0  0  0  0 
 20 43  1  0  0  0  0 
 21 44  1  0  0  0  0 
 22 24  2  0  0  0  0 
 22 25  1  0  0  0  0 
 23 26  2  0  0  0  0 
 23 27  1  0  0  0  0 
 24 26  1  0  0  0  0 
 24 46  1  0  0  0  0 
 25 27  2  0  0  0  0 
 25 47  1  0  0  0  0 
 26 48  1  0  0  0  0 
 27 49  1  0  0  0  0 
 28 51  1  0  0  0  0 
 28 52  1  0  0  0  0 
 28 53  1  0  0  0  0 
 29 54  1  0  0  0  0 
 29 55  1  0  0  0  0 
 29 56  1  0  0  0  0 
M  END
> <cdk:Title>
71329

> <cdk:Remark>
null

> <PUBCHEM_COMPOUND_CID>
71329

> <PUBCHEM_COMPOUND_CANONICALIZED>
1

> <PUBCHEM_CACTVS_COMPLEXITY>
672

> <PUBCHEM_CACTVS_HBOND_ACCEPTOR>
8

> <PUBCHEM_CACTVS_HBOND_DONOR>
2

> <PUBCHEM_CACTVS_ROTATABLE_BOND>
11

> <PUBCHEM_CACTVS_SUBSKEYS>
AAADceB7OABgAAAAAAAAAAAAAAAAAAAAAAAwYAAAAAAAAAABQAAAHgQQQAAADAzhmAayxoNABAKAAiRCQHCCCAAgIgAIiAAObIgOJiKEsZuHOCDk0BGY6AewwIAOCEAAAAAAAAAQgAAAAAAAAAAAAAAAAA==

> <PUBCHEM_IUPAC_OPENEYE_NAME>
N-[4-[2-[2-[4-(methanesulfonamido)phenoxy]ethyl-methyl-amino]ethyl]phenyl]methanesulfonamide

> <PUBCHEM_IUPAC_CAS_NAME>
N-[4-[2-[2-[4-(methanesulfonamido)phenoxy]ethyl-methylamino]ethyl]phenyl]methanesulfonamide

> <PUBCHEM_IUPAC_NAME>
N-[4-[2-[2-[4-(methanesulfonamido)phenoxy]ethyl-methylamino]ethyl]phenyl]methanesulfonamide

> <PUBCHEM_IUPAC_SYSTEMATIC_NAME>
N-[4-[2-[methyl-[2-[4-(methylsulfonylamino)phenoxy]ethyl]amino]ethyl]phenyl]methanesulfonamide

> <PUBCHEM_IUPAC_TRADITIONAL_NAME>
N-[4-[2-[2-[4-(methanesulfonamido)phenoxy]ethyl-methyl-amino]ethyl]phenyl]methanesulfonamide

> <PUBCHEM_IUPAC_INCHI>
InChI=1S/C19H27N3O5S2/c1-22(13-12-16-4-6-17(7-5-16)20-28(2,23)24)14-15-27-19-10-8-18(9-11-19)21-29(3,25)26/h4-11,20-21H,12-15H2,1-3H3

> <PUBCHEM_IUPAC_INCHIKEY>
IXTMWRCNAAVVAI-UHFFFAOYSA-N

> <PUBCHEM_XLOGP3_AA>
1.8

> <PUBCHEM_EXACT_MASS>
441.139213

> <PUBCHEM_MOLECULAR_FORMULA>
C19H27N3O5S2

> <PUBCHEM_MOLECULAR_WEIGHT>
441.56478

> <PUBCHEM_OPENEYE_CAN_SMILES>
CN(CCC1=CC=C(C=C1)NS(=O)(=O)C)CCOC2=CC=C(C=C2)NS(=O)(=O)C

> <PUBCHEM_OPENEYE_ISO_SMILES>
CN(CCC1=CC=C(C=C1)NS(=O)(=O)C)CCOC2=CC=C(C=C2)NS(=O)(=O)C

> <PUBCHEM_CACTVS_TPSA>
122

> <PUBCHEM_MONOISOTOPIC_WEIGHT>
441.139213

> <PUBCHEM_TOTAL_CHARGE>
0

> <PUBCHEM_HEAVY_ATOM_COUNT>
29

> <PUBCHEM_ATOM_DEF_STEREO_COUNT>
0

> <PUBCHEM_ATOM_UDEF_STEREO_COUNT>
0

> <PUBCHEM_BOND_DEF_STEREO_COUNT>
0

> <PUBCHEM_BOND_UDEF_STEREO_COUNT>
0

> <PUBCHEM_ISOTOPIC_ATOM_COUNT>
0

> <PUBCHEM_COMPONENT_COUNT>
1

> <PUBCHEM_CACTVS_TAUTO_COUNT>
1

> <PUBCHEM_COORDINATE_TYPE>
1
5
255

> <PUBCHEM_BONDANNOTATIONS>
14  17  8
14  18  8
17  20  8
18  21  8
19  20  8
19  21  8
22  24  8
22  25  8
23  26  8
23  27  8
24  26  8
25  27  8

> <DRUG_ID>
w64

> <DRUG_NAME>
Dofetilide

$$$$
2406
  CDK     0927151942
null
 25 26  0  0  0  0  0  0  0  0999 V2000
    2.5369   -3.0000    0.0000 Cl  0  0  0  0  0  0  0  0  0  0  0  0
    7.7331    0.0000    0.0000 Cl  0  0  0  0  0  0  0  0  0  0  0  0
    6.0010   -3.0000    0.0000 Cl  0  0  0  0  0  0  0  0  0  0  0  0
    6.0010    3.0000    0.0000 Cl  0  0  0  0  0  0  0  0  0  0  0  0
    4.2690    0.0000    0.0000 S   0  0  0  0  0  0  0  0  0  0  0  0
    2.5369   -1.0000    0.0000 O   0  0  0  0  0  0  0  0  0  0  0  0
    6.0010   -1.0000    0.0000 O   0  0  0  0  0  0  0  0  0  0  0  0
    5.1350    0.5000    0.0000 C   0  0  0  0  0  0  0  0  0  0  0  0
    4.2690   -1.0000    0.0000 C   0  0  0  0  0  0  0  0  0  0  0  0
    3.4030   -1.5000    0.0000 C   0  0  0  0  0  0  0  0  0  0  0  0
    6.0010    0.0000    0.0000 C   0  0  0  0  0  0  0  0  0  0  0  0
    5.1350   -1.5000    0.0000 C   0  0  0  0  0  0  0  0  0  0  0  0
    5.1350    1.5000    0.0000 C   0  0  0  0  0  0  0  0  0  0  0  0
    3.4030   -2.5000    0.0000 C   0  0  0  0  0  0  0  0  0  0  0  0
    6.8671    0.5000    0.0000 C   0  0  0  0  0  0  0  0  0  0  0  0
    5.1350   -2.5000    0.0000 C   0  0  0  0  0  0  0  0  0  0  0  0
    6.0010    2.0000    0.0000 C   0  0  0  0  0  0  0  0  0  0  0  0
    4.2690   -3.0000    0.0000 C   0  0  0  0  0  0  0  0  0  0  0  0
    6.8671    1.5000    0.0000 C   0  0  0  0  0  0  0  0  0  0  0  0
    5.6720   -1.1900    0.0000 H   0  0  0  0  0  0  0  0  0  0  0  0
    4.5981    1.8100    0.0000 H   0  0  0  0  0  0  0  0  0  0  0  0
    4.2690   -3.6200    0.0000 H   0  0  0  0  0  0  0  0  0  0  0  0
    7.4040    1.8100    0.0000 H   0  0  0  0  0  0  0  0  0  0  0  0
    2.0000   -1.3100    0.0000 H   0  0  0  0  0  0  0  0  0  0  0  0
    6.5380   -1.3100    0.0000 H   0  0  0  0  0  0  0  0  0  0  0  0
  1 14  1  0  0  0  0 
  2 15  1  0  0  0  0 
  3 16  1  0  0  0  0 
  4 17  1  0  0  0  0 
  5  8  1  0  0  0  0 
  5  9  1  0  0  0  0 
  6 10  1  0  0  0  0 
  6 24  1  0  0  0  0 
  7 11  1  0  0  0  0 
  7 25  1  0  0  0  0 
  8 11  1  0  0  0  0 
  8 13  2  0  0  0  0 
  9 10  1  0  0  0  0 
  9 12  2  0  0  0  0 
 10 14  2  0  0  0  0 
 11 15  2  0  0  0  0 
 12 16  1  0  0  0  0 
 12 20  1  0  0  0  0 
 13 17  1  0  0  0  0 
 13 21  1  0  0  0  0 
 14 18  1  0  0  0  0 
 15 19  1  0  0  0  0 
 16 18  2  0  0  0  0 
 17 19  2  0  0  0  0 
 18 22  1  0  0  0  0 
 19 23  1  0  0  0  0 
M  END
> <cdk:Title>
2406

> <cdk:Remark>
null

> <PUBCHEM_COMPOUND_CID>
2406

> <PUBCHEM_COMPOUND_CANONICALIZED>
1

> <PUBCHEM_CACTVS_COMPLEXITY>
282

> <PUBCHEM_CACTVS_HBOND_ACCEPTOR>
3

> <PUBCHEM_CACTVS_HBOND_DONOR>
2

> <PUBCHEM_CACTVS_ROTATABLE_BOND>
2

> <PUBCHEM_CACTVS_SUBSKEYS>
AAADcYBwMABHAAAAAAAAAAAAAAAAAAAAAAAwYAAAAAAAAAABQAAAGgYACAAACAaA0CAwB4AAAgiAACBCAAACAAAgLVAAiBoEC4gIJiKjExKAcAAkwBEomAeAQAAAACAAABCAKAAAQAAAIQBQAAAAAAAAAA==

> <PUBCHEM_IUPAC_OPENEYE_NAME>
2,4-dichloro-6-(3,5-dichloro-2-hydroxy-phenyl)sulfanyl-phenol

> <PUBCHEM_IUPAC_CAS_NAME>
2,4-dichloro-6-[(3,5-dichloro-2-hydroxyphenyl)thio]phenol

> <PUBCHEM_IUPAC_NAME>
2,4-dichloro-6-(3,5-dichloro-2-hydroxyphenyl)sulfanylphenol

> <PUBCHEM_IUPAC_SYSTEMATIC_NAME>
2-[3,5-bis(chloranyl)-2-oxidanyl-phenyl]sulfanyl-4,6-bis(chloranyl)phenol

> <PUBCHEM_IUPAC_TRADITIONAL_NAME>
2,4-dichloro-6-[(3,5-dichloro-2-hydroxy-phenyl)thio]phenol

> <PUBCHEM_IUPAC_INCHI>
InChI=1S/C12H6Cl4O2S/c13-5-1-7(15)11(17)9(3-5)19-10-4-6(14)2-8(16)12(10)18/h1-4,17-18H

> <PUBCHEM_IUPAC_INCHIKEY>
JFIOVJDNOJYLKP-UHFFFAOYSA-N

> <PUBCHEM_XLOGP3_AA>
5.8

> <PUBCHEM_EXACT_MASS>
355.881311

> <PUBCHEM_MOLECULAR_FORMULA>
C12H6Cl4O2S

> <PUBCHEM_MOLECULAR_WEIGHT>
356.05184

> <PUBCHEM_OPENEYE_CAN_SMILES>
C1=C(C=C(C(=C1Cl)O)SC2=CC(=CC(=C2O)Cl)Cl)Cl

> <PUBCHEM_OPENEYE_ISO_SMILES>
C1=C(C=C(C(=C1Cl)O)SC2=CC(=CC(=C2O)Cl)Cl)Cl

> <PUBCHEM_CACTVS_TPSA>
65.8

> <PUBCHEM_MONOISOTOPIC_WEIGHT>
353.884261

> <PUBCHEM_TOTAL_CHARGE>
0

> <PUBCHEM_HEAVY_ATOM_COUNT>
19

> <PUBCHEM_ATOM_DEF_STEREO_COUNT>
0

> <PUBCHEM_ATOM_UDEF_STEREO_COUNT>
0

> <PUBCHEM_BOND_DEF_STEREO_COUNT>
0

> <PUBCHEM_BOND_UDEF_STEREO_COUNT>
0

> <PUBCHEM_ISOTOPIC_ATOM_COUNT>
0

> <PUBCHEM_COMPONENT_COUNT>
1

> <PUBCHEM_CACTVS_TAUTO_COUNT>
1

> <PUBCHEM_COORDINATE_TYPE>
1
5
255

> <PUBCHEM_BONDANNOTATIONS>
10  14  8
11  15  8
12  16  8
13  17  8
14  18  8
15  19  8
16  18  8
17  19  8
8  11  8
8  13  8
9  10  8
9  12  8

> <DRUG_ID>
w65

> <DRUG_NAME>
Bithionol

$$$$
21382
  CDK     0927151942
null
 42 44  0  0  0  0  0  0  0  0999 V2000
    8.1962   -0.6659    0.0000 Cl  0  0  0  0  0  0  0  0  0  0  0  0
    4.6660   -2.6900    0.0000 N   0  0  0  0  0  0  0  0  0  0  0  0
    2.9340    2.3100    0.0000 N   0  0  0  0  0  0  0  0  0  0  0  0
    4.6660   -0.6900    0.0000 C   0  0  3  0  0  0  0  0  0  0  0  0
    4.6660    0.3100    0.0000 C   0  0  0  0  0  0  0  0  0  0  0  0
    5.5321   -1.1900    0.0000 C   0  0  0  0  0  0  0  0  0  0  0  0
    3.8000   -1.1900    0.0000 C   0  0  0  0  0  0  0  0  0  0  0  0
    3.8000    0.8100    0.0000 C   0  0  0  0  0  0  0  0  0  0  0  0
    5.5321   -2.1900    0.0000 C   0  0  0  0  0  0  0  0  0  0  0  0
    3.8000   -2.1900    0.0000 C   0  0  0  0  0  0  0  0  0  0  0  0
    3.8000    1.8100    0.0000 C   0  0  0  0  0  0  0  0  0  0  0  0
    6.4260   -0.6553    0.0000 C   0  0  0  0  0  0  0  0  0  0  0  0
    2.9061   -0.6553    0.0000 C   0  0  0  0  0  0  0  0  0  0  0  0
    6.4260   -2.7247    0.0000 C   0  0  0  0  0  0  0  0  0  0  0  0
    2.9061   -2.7247    0.0000 C   0  0  0  0  0  0  0  0  0  0  0  0
    7.3321   -1.1692    0.0000 C   0  0  0  0  0  0  0  0  0  0  0  0
    2.0000   -1.1692    0.0000 C   0  0  0  0  0  0  0  0  0  0  0  0
    7.3321   -2.2108    0.0000 C   0  0  0  0  0  0  0  0  0  0  0  0
    2.0000   -2.2108    0.0000 C   0  0  0  0  0  0  0  0  0  0  0  0
    2.9340    3.3100    0.0000 C   0  0  0  0  0  0  0  0  0  0  0  0
    2.0680    1.8100    0.0000 C   0  0  0  0  0  0  0  0  0  0  0  0
    5.2030   -0.3800    0.0000 H   0  0  0  0  0  0  0  0  0  0  0  0
    5.2766    0.2023    0.0000 H   0  0  0  0  0  0  0  0  0  0  0  0
    4.8781    0.8926    0.0000 H   0  0  0  0  0  0  0  0  0  0  0  0
    3.1894    0.9177    0.0000 H   0  0  0  0  0  0  0  0  0  0  0  0
    3.5880    0.2274    0.0000 H   0  0  0  0  0  0  0  0  0  0  0  0
    4.4106    1.7023    0.0000 H   0  0  0  0  0  0  0  0  0  0  0  0
    4.0121    2.3926    0.0000 H   0  0  0  0  0  0  0  0  0  0  0  0
    4.6660   -3.3100    0.0000 H   0  0  0  0  0  0  0  0  0  0  0  0
    6.4188   -0.0354    0.0000 H   0  0  0  0  0  0  0  0  0  0  0  0
    2.9132   -0.0354    0.0000 H   0  0  0  0  0  0  0  0  0  0  0  0
    6.4188   -3.3446    0.0000 H   0  0  0  0  0  0  0  0  0  0  0  0
    2.9132   -3.3446    0.0000 H   0  0  0  0  0  0  0  0  0  0  0  0
    1.4643   -0.8571    0.0000 H   0  0  0  0  0  0  0  0  0  0  0  0
    7.8678   -2.5229    0.0000 H   0  0  0  0  0  0  0  0  0  0  0  0
    1.4643   -2.5229    0.0000 H   0  0  0  0  0  0  0  0  0  0  0  0
    1.7580    2.3469    0.0000 H   0  0  0  0  0  0  0  0  0  0  0  0
    3.5540    3.3100    0.0000 H   0  0  0  0  0  0  0  0  0  0  0  0
    2.9340    3.9300    0.0000 H   0  0  0  0  0  0  0  0  0  0  0  0
    2.3140    3.3100    0.0000 H   0  0  0  0  0  0  0  0  0  0  0  0
    1.5310    1.5000    0.0000 H   0  0  0  0  0  0  0  0  0  0  0  0
    2.3780    1.2731    0.0000 H   0  0  0  0  0  0  0  0  0  0  0  0
  1 16  1  0  0  0  0 
  2  9  1  0  0  0  0 
  2 10  1  0  0  0  0 
  2 29  1  0  0  0  0 
  3 11  1  0  0  0  0 
  3 20  1  0  0  0  0 
  3 21  1  0  0  0  0 
  4  5  1  0  0  0  0 
  4  6  1  0  0  0  0 
  4  7  1  0  0  0  0 
  4 22  1  0  0  0  0 
  5  8  1  0  0  0  0 
  5 23  1  0  0  0  0 
  5 24  1  0  0  0  0 
  6  9  2  0  0  0  0 
  6 12  1  0  0  0  0 
  7 10  1  0  0  0  0 
  7 13  2  0  0  0  0 
  8 11  1  0  0  0  0 
  8 25  1  0  0  0  0 
  8 26  1  0  0  0  0 
  9 14  1  0  0  0  0 
 10 15  2  0  0  0  0 
 11 27  1  0  0  0  0 
 11 28  1  0  0  0  0 
 12 16  2  0  0  0  0 
 12 30  1  0  0  0  0 
 13 17  1  0  0  0  0 
 13 31  1  0  0  0  0 
 14 18  2  0  0  0  0 
 14 32  1  0  0  0  0 
 15 19  1  0  0  0  0 
 15 33  1  0  0  0  0 
 16 18  1  0  0  0  0 
 17 19  2  0  0  0  0 
 17 34  1  0  0  0  0 
 18 35  1  0  0  0  0 
 19 36  1  0  0  0  0 
 20 38  1  0  0  0  0 
 20 39  1  0  0  0  0 
 20 40  1  0  0  0  0 
 21 37  1  0  0  0  0 
 21 41  1  0  0  0  0 
 21 42  1  0  0  0  0 
M  END
> <cdk:Title>
21382

> <cdk:Remark>
null

> <PUBCHEM_COMPOUND_CID>
21382

> <PUBCHEM_COMPOUND_CANONICALIZED>
1

> <PUBCHEM_CACTVS_COMPLEXITY>
333

> <PUBCHEM_CACTVS_HBOND_ACCEPTOR>
2

> <PUBCHEM_CACTVS_HBOND_DONOR>
1

> <PUBCHEM_CACTVS_ROTATABLE_BOND>
4

> <PUBCHEM_CACTVS_SUBSKEYS>
AAADceB7AAAEAAAAAAAAAAAAAAAAAAAAAAA8YIAAAAAAAACxQAAAHAIQAAAADQrBGCQywIPAAACAAiRCQACCAAAhBwAIiAAIZogIIGLBk5GEIAhgkADIyAcQgMAOgABAIAACAAAAAIBAAAQAAAAAAAAAAA==

> <PUBCHEM_IUPAC_OPENEYE_NAME>
3-(2-chloro-9,10-dihydroacridin-9-yl)-N,N-dimethyl-propan-1-amine

> <PUBCHEM_IUPAC_CAS_NAME>
3-(2-chloro-9,10-dihydroacridin-9-yl)-N,N-dimethyl-1-propanamine

> <PUBCHEM_IUPAC_NAME>
3-(2-chloro-9,10-dihydroacridin-9-yl)-N,N-dimethylpropan-1-amine

> <PUBCHEM_IUPAC_SYSTEMATIC_NAME>
3-(2-chloranyl-9,10-dihydroacridin-9-yl)-N,N-dimethyl-propan-1-amine

> <PUBCHEM_IUPAC_TRADITIONAL_NAME>
3-(2-chloro-9,10-dihydroacridin-9-yl)propyl-dimethyl-amine

> <PUBCHEM_IUPAC_INCHI>
InChI=1S/C18H21ClN2/c1-21(2)11-5-7-14-15-6-3-4-8-17(15)20-18-10-9-13(19)12-16(14)18/h3-4,6,8-10,12,14,20H,5,7,11H2,1-2H3

> <PUBCHEM_IUPAC_INCHIKEY>
JFRLWWDJCFYFSU-UHFFFAOYSA-N

> <PUBCHEM_XLOGP3_AA>
4.6

> <PUBCHEM_EXACT_MASS>
300.139326

> <PUBCHEM_MOLECULAR_FORMULA>
C18H21ClN2

> <PUBCHEM_MOLECULAR_WEIGHT>
300.82574

> <PUBCHEM_OPENEYE_CAN_SMILES>
CN(C)CCCC1C2=CC=CC=C2NC3=C1C=C(C=C3)Cl

> <PUBCHEM_OPENEYE_ISO_SMILES>
CN(C)CCCC1C2=CC=CC=C2NC3=C1C=C(C=C3)Cl

> <PUBCHEM_CACTVS_TPSA>
15.3

> <PUBCHEM_MONOISOTOPIC_WEIGHT>
300.139326

> <PUBCHEM_TOTAL_CHARGE>
0

> <PUBCHEM_HEAVY_ATOM_COUNT>
21

> <PUBCHEM_ATOM_DEF_STEREO_COUNT>
0

> <PUBCHEM_ATOM_UDEF_STEREO_COUNT>
1

> <PUBCHEM_BOND_DEF_STEREO_COUNT>
0

> <PUBCHEM_BOND_UDEF_STEREO_COUNT>
0

> <PUBCHEM_ISOTOPIC_ATOM_COUNT>
0

> <PUBCHEM_COMPONENT_COUNT>
1

> <PUBCHEM_CACTVS_TAUTO_COUNT>
1

> <PUBCHEM_COORDINATE_TYPE>
1
5
255

> <PUBCHEM_BONDANNOTATIONS>
10  15  8
12  16  8
13  17  8
14  18  8
15  19  8
16  18  8
17  19  8
4  5  3
6  12  8
6  9  8
7  10  8
7  13  8
9  14  8

> <DRUG_ID>
w66

> <DRUG_NAME>
Clomacran

$$$$
5340
  CDK     0927151942
null
 25 26  0  0  0  0  0  0  0  0999 V2000
    3.0000    0.8038    0.0000 S   0  0  0  0  0  0  0  0  0  0  0  0
    4.7796    1.8970    0.0000 S   0  0  0  0  0  0  0  0  0  0  0  0
    4.0000    0.8038    0.0000 O   0  0  0  0  0  0  0  0  0  0  0  0
    2.0000    0.8038    0.0000 O   0  0  0  0  0  0  0  0  0  0  0  0
    3.0000    1.8038    0.0000 N   0  0  0  0  0  0  0  0  0  0  0  0
    3.0000   -3.1962    0.0000 N   0  0  0  0  0  0  0  0  0  0  0  0
    3.9706    3.2983    0.0000 N   0  0  0  0  0  0  0  0  0  0  0  0
    3.0000   -0.1962    0.0000 C   0  0  0  0  0  0  0  0  0  0  0  0
    3.8660   -0.6962    0.0000 C   0  0  0  0  0  0  0  0  0  0  0  0
    2.1340   -0.6962    0.0000 C   0  0  0  0  0  0  0  0  0  0  0  0
    3.0000   -2.1962    0.0000 C   0  0  0  0  0  0  0  0  0  0  0  0
    3.8660   -1.6962    0.0000 C   0  0  0  0  0  0  0  0  0  0  0  0
    2.1340   -1.6962    0.0000 C   0  0  0  0  0  0  0  0  0  0  0  0
    3.8660    2.3038    0.0000 C   0  0  0  0  0  0  0  0  0  0  0  0
    5.4487    2.6402    0.0000 C   0  0  0  0  0  0  0  0  0  0  0  0
    4.9487    3.5062    0.0000 C   0  0  0  0  0  0  0  0  0  0  0  0
    4.4030   -0.3862    0.0000 H   0  0  0  0  0  0  0  0  0  0  0  0
    1.5970   -0.3862    0.0000 H   0  0  0  0  0  0  0  0  0  0  0  0
    2.4631    2.1138    0.0000 H   0  0  0  0  0  0  0  0  0  0  0  0
    4.4030   -2.0062    0.0000 H   0  0  0  0  0  0  0  0  0  0  0  0
    1.5970   -2.0062    0.0000 H   0  0  0  0  0  0  0  0  0  0  0  0
    2.4631   -3.5062    0.0000 H   0  0  0  0  0  0  0  0  0  0  0  0
    3.5369   -3.5062    0.0000 H   0  0  0  0  0  0  0  0  0  0  0  0
    6.0653    2.5754    0.0000 H   0  0  0  0  0  0  0  0  0  0  0  0
    5.2009    4.0726    0.0000 H   0  0  0  0  0  0  0  0  0  0  0  0
  1  3  2  0  0  0  0 
  1  4  2  0  0  0  0 
  1  5  1  0  0  0  0 
  1  8  1  0  0  0  0 
  2 14  1  0  0  0  0 
  2 15  1  0  0  0  0 
  5 14  1  0  0  0  0 
  5 19  1  0  0  0  0 
  6 11  1  0  0  0  0 
  6 22  1  0  0  0  0 
  6 23  1  0  0  0  0 
  7 14  2  0  0  0  0 
  7 16  1  0  0  0  0 
  8  9  2  0  0  0  0 
  8 10  1  0  0  0  0 
  9 12  1  0  0  0  0 
  9 17  1  0  0  0  0 
 10 13  2  0  0  0  0 
 10 18  1  0  0  0  0 
 11 12  2  0  0  0  0 
 11 13  1  0  0  0  0 
 12 20  1  0  0  0  0 
 13 21  1  0  0  0  0 
 15 16  2  0  0  0  0 
 15 24  1  0  0  0  0 
 16 25  1  0  0  0  0 
M  END
> <cdk:Title>
5340

> <cdk:Remark>
null

> <PUBCHEM_COMPOUND_CID>
5340

> <PUBCHEM_COMPOUND_CANONICALIZED>
1

> <PUBCHEM_CACTVS_COMPLEXITY>
320

> <PUBCHEM_CACTVS_HBOND_ACCEPTOR>
6

> <PUBCHEM_CACTVS_HBOND_DONOR>
2

> <PUBCHEM_CACTVS_ROTATABLE_BOND>
3

> <PUBCHEM_CACTVS_SUBSKEYS>
AAADccBzMABgAAAAAAAAAAAAAAAAAWAAAAAwAAAAAAAAAAABwAAAHAQQQAAACAjFUgS90ZJIEAqkADRnZHDC8LlxCjlIyBwYZIiIICKAkZGAIABgkAIIyCcQAAAAAAQAAAAAAAAACAAAAAAAAAAAAAAAAA==

> <PUBCHEM_IUPAC_OPENEYE_NAME>
4-amino-N-thiazol-2-yl-benzenesulfonamide

> <PUBCHEM_IUPAC_CAS_NAME>
4-amino-N-(2-thiazolyl)benzenesulfonamide

> <PUBCHEM_IUPAC_NAME>
4-amino-N-(1,3-thiazol-2-yl)benzenesulfonamide

> <PUBCHEM_IUPAC_SYSTEMATIC_NAME>
4-azanyl-N-(1,3-thiazol-2-yl)benzenesulfonamide

> <PUBCHEM_IUPAC_TRADITIONAL_NAME>
4-amino-N-thiazol-2-yl-benzenesulfonamide

> <PUBCHEM_IUPAC_INCHI>
InChI=1S/C9H9N3O2S2/c10-7-1-3-8(4-2-7)16(13,14)12-9-11-5-6-15-9/h1-6H,10H2,(H,11,12)

> <PUBCHEM_IUPAC_INCHIKEY>
JNMRHUJNCSQMMB-UHFFFAOYSA-N

> <PUBCHEM_XLOGP3>
0.1

> <PUBCHEM_EXACT_MASS>
255.013619

> <PUBCHEM_MOLECULAR_FORMULA>
C9H9N3O2S2

> <PUBCHEM_MOLECULAR_WEIGHT>
255.31666

> <PUBCHEM_OPENEYE_CAN_SMILES>
C1=CC(=CC=C1N)S(=O)(=O)NC2=NC=CS2

> <PUBCHEM_OPENEYE_ISO_SMILES>
C1=CC(=CC=C1N)S(=O)(=O)NC2=NC=CS2

> <PUBCHEM_CACTVS_TPSA>
122

> <PUBCHEM_MONOISOTOPIC_WEIGHT>
255.013619

> <PUBCHEM_TOTAL_CHARGE>
0

> <PUBCHEM_HEAVY_ATOM_COUNT>
16

> <PUBCHEM_ATOM_DEF_STEREO_COUNT>
0

> <PUBCHEM_ATOM_UDEF_STEREO_COUNT>
0

> <PUBCHEM_BOND_DEF_STEREO_COUNT>
0

> <PUBCHEM_BOND_UDEF_STEREO_COUNT>
0

> <PUBCHEM_ISOTOPIC_ATOM_COUNT>
0

> <PUBCHEM_COMPONENT_COUNT>
1

> <PUBCHEM_CACTVS_TAUTO_COUNT>
4

> <PUBCHEM_COORDINATE_TYPE>
1
5
255

> <PUBCHEM_BONDANNOTATIONS>
10  13  8
11  12  8
11  13  8
15  16  8
2  14  8
2  15  8
7  14  8
7  16  8
8  10  8
8  9  8
9  12  8

> <DRUG_ID>
w67

> <DRUG_NAME>
Sulfathiazole

$$$$
5556
  CDK     0927151942
null
 35 38  0  0  0  0  0  0  0  0999 V2000
    2.0000   -0.2812    0.0000 Cl  0  0  0  0  0  0  0  0  0  0  0  0
    6.4641    2.2349    0.0000 Cl  0  0  0  0  0  0  0  0  0  0  0  0
    5.8374   -1.6082    0.0000 N   0  0  0  0  0  0  0  0  0  0  0  0
    6.3374    0.5824    0.0000 N   0  0  0  0  0  0  0  0  0  0  0  0
    7.4235   -1.8947    0.0000 N   0  0  0  0  0  0  0  0  0  0  0  0
    6.9517   -2.7696    0.0000 N   0  0  0  0  0  0  0  0  0  0  0  0
    4.9365   -1.1744    0.0000 C   0  0  0  0  0  0  0  0  0  0  0  0
    4.7139   -0.1994    0.0000 C   0  0  0  0  0  0  0  0  0  0  0  0
    6.7384   -1.1744    0.0000 C   0  0  0  0  0  0  0  0  0  0  0  0
    5.3374    0.5824    0.0000 C   0  0  0  0  0  0  0  0  0  0  0  0
    6.9609   -0.1994    0.0000 C   0  0  0  0  0  0  0  0  0  0  0  0
    5.9734   -2.5930    0.0000 C   0  0  0  0  0  0  0  0  0  0  0  0
    4.1839   -1.8946    0.0000 C   0  0  0  0  0  0  0  0  0  0  0  0
    4.9036    1.4834    0.0000 C   0  0  0  0  0  0  0  0  0  0  0  0
    3.7234    0.1229    0.0000 C   0  0  0  0  0  0  0  0  0  0  0  0
    3.1862   -1.5952    0.0000 C   0  0  0  0  0  0  0  0  0  0  0  0
    2.9544   -0.5797    0.0000 C   0  0  0  0  0  0  0  0  0  0  0  0
    5.2518   -3.2853    0.0000 C   0  0  0  0  0  0  0  0  0  0  0  0
    5.4669    2.3096    0.0000 C   0  0  0  0  0  0  0  0  0  0  0  0
    3.9063    1.5581    0.0000 C   0  0  0  0  0  0  0  0  0  0  0  0
    5.0330    3.2106    0.0000 C   0  0  0  0  0  0  0  0  0  0  0  0
    3.4725    2.4591    0.0000 C   0  0  0  0  0  0  0  0  0  0  0  0
    4.0358    3.2853    0.0000 C   0  0  0  0  0  0  0  0  0  0  0  0
    7.5195   -0.4684    0.0000 H   0  0  0  0  0  0  0  0  0  0  0  0
    7.3475    0.2853    0.0000 H   0  0  0  0  0  0  0  0  0  0  0  0
    4.3288   -2.4974    0.0000 H   0  0  0  0  0  0  0  0  0  0  0  0
    3.5925    0.7289    0.0000 H   0  0  0  0  0  0  0  0  0  0  0  0
    2.7334   -2.0187    0.0000 H   0  0  0  0  0  0  0  0  0  0  0  0
    4.8226   -2.8379    0.0000 H   0  0  0  0  0  0  0  0  0  0  0  0
    4.8044   -3.7145    0.0000 H   0  0  0  0  0  0  0  0  0  0  0  0
    5.6811   -3.7327    0.0000 H   0  0  0  0  0  0  0  0  0  0  0  0
    3.5571    1.0458    0.0000 H   0  0  0  0  0  0  0  0  0  0  0  0
    5.3822    3.7228    0.0000 H   0  0  0  0  0  0  0  0  0  0  0  0
    2.8542    2.5054    0.0000 H   0  0  0  0  0  0  0  0  0  0  0  0
    3.7668    3.8439    0.0000 H   0  0  0  0  0  0  0  0  0  0  0  0
  1 17  1  0  0  0  0 
  2 19  1  0  0  0  0 
  3  7  1  0  0  0  0 
  3  9  1  0  0  0  0 
  3 12  1  0  0  0  0 
  4 10  2  0  0  0  0 
  4 11  1  0  0  0  0 
  5  6  1  0  0  0  0 
  5  9  2  0  0  0  0 
  6 12  2  0  0  0  0 
  7  8  2  0  0  0  0 
  7 13  1  0  0  0  0 
  8 10  1  0  0  0  0 
  8 15  1  0  0  0  0 
  9 11  1  0  0  0  0 
 10 14  1  0  0  0  0 
 11 24  1  0  0  0  0 
 11 25  1  0  0  0  0 
 12 18  1  0  0  0  0 
 13 16  2  0  0  0  0 
 13 26  1  0  0  0  0 
 14 19  1  0  0  0  0 
 14 20  2  0  0  0  0 
 15 17  2  0  0  0  0 
 15 27  1  0  0  0  0 
 16 17  1  0  0  0  0 
 16 28  1  0  0  0  0 
 18 29  1  0  0  0  0 
 18 30  1  0  0  0  0 
 18 31  1  0  0  0  0 
 19 21  2  0  0  0  0 
 20 22  1  0  0  0  0 
 20 32  1  0  0  0  0 
 21 23  1  0  0  0  0 
 21 33  1  0  0  0  0 
 22 23  2  0  0  0  0 
 22 34  1  0  0  0  0 
 23 35  1  0  0  0  0 
M  END
> <cdk:Title>
5556

> <cdk:Remark>
null

> <PUBCHEM_COMPOUND_CID>
5556

> <PUBCHEM_COMPOUND_CANONICALIZED>
1

> <PUBCHEM_CACTVS_COMPLEXITY>
472

> <PUBCHEM_CACTVS_HBOND_ACCEPTOR>
3

> <PUBCHEM_CACTVS_HBOND_DONOR>
0

> <PUBCHEM_CACTVS_ROTATABLE_BOND>
1

> <PUBCHEM_CACTVS_SUBSKEYS>
AAADccB7gAAGAAAAAAAAAAAAAAAAAWAAAAAwYAAABAAAAACB0AAAHAIIAAAADArBGyQz0IcMEACiAyZiZACSgCshB6AdiAAwZpiIaKLBm5GUIAhgiALIyCcQgMAOAABAIAADAAAAAIBAAAYAAAAAAAAAAA==

> <PUBCHEM_IUPAC_OPENEYE_NAME>
8-chloro-6-(2-chlorophenyl)-1-methyl-4H-[1,2,4]triazolo[4,3-a][1,4]benzodiazepine

> <PUBCHEM_IUPAC_CAS_NAME>
8-chloro-6-(2-chlorophenyl)-1-methyl-4H-[1,2,4]triazolo[4,3-a][1,4]benzodiazepine

> <PUBCHEM_IUPAC_NAME>
8-chloro-6-(2-chlorophenyl)-1-methyl-4H-[1,2,4]triazolo[4,3-a][1,4]benzodiazepine

> <PUBCHEM_IUPAC_SYSTEMATIC_NAME>
8-chloranyl-6-(2-chlorophenyl)-1-methyl-4H-[1,2,4]triazolo[4,3-a][1,4]benzodiazepine

> <PUBCHEM_IUPAC_TRADITIONAL_NAME>
8-chloro-6-(2-chlorophenyl)-1-methyl-4H-[1,2,4]triazolo[4,3-a][1,4]benzodiazepine

> <PUBCHEM_IUPAC_INCHI>
InChI=1S/C17H12Cl2N4/c1-10-21-22-16-9-20-17(12-4-2-3-5-14(12)19)13-8-11(18)6-7-15(13)23(10)16/h2-8H,9H2,1H3

> <PUBCHEM_IUPAC_INCHIKEY>
JOFWLTCLBGQGBO-UHFFFAOYSA-N

> <PUBCHEM_XLOGP3>
2.4

> <PUBCHEM_EXACT_MASS>
342.043902

> <PUBCHEM_MOLECULAR_FORMULA>
C17H12Cl2N4

> <PUBCHEM_MOLECULAR_WEIGHT>
343.20998

> <PUBCHEM_OPENEYE_CAN_SMILES>
CC1=NN=C2N1C3=C(C=C(C=C3)Cl)C(=NC2)C4=CC=CC=C4Cl

> <PUBCHEM_OPENEYE_ISO_SMILES>
CC1=NN=C2N1C3=C(C=C(C=C3)Cl)C(=NC2)C4=CC=CC=C4Cl

> <PUBCHEM_CACTVS_TPSA>
43.1

> <PUBCHEM_MONOISOTOPIC_WEIGHT>
342.043902

> <PUBCHEM_TOTAL_CHARGE>
0

> <PUBCHEM_HEAVY_ATOM_COUNT>
23

> <PUBCHEM_ATOM_DEF_STEREO_COUNT>
0

> <PUBCHEM_ATOM_UDEF_STEREO_COUNT>
0

> <PUBCHEM_BOND_DEF_STEREO_COUNT>
0

> <PUBCHEM_BOND_UDEF_STEREO_COUNT>
0

> <PUBCHEM_ISOTOPIC_ATOM_COUNT>
0

> <PUBCHEM_COMPONENT_COUNT>
1

> <PUBCHEM_CACTVS_TAUTO_COUNT>
1

> <PUBCHEM_COORDINATE_TYPE>
1
5
255

> <PUBCHEM_BONDANNOTATIONS>
13  16  8
14  19  8
14  20  8
15  17  8
16  17  8
19  21  8
20  22  8
21  23  8
22  23  8
3  12  8
3  9  8
5  6  8
5  9  8
6  12  8
7  13  8
7  8  8
8  15  8

> <DRUG_ID>
w68

> <DRUG_NAME>
Triazolam

$$$$
29321
  CDK     0927151942
null
 54 57  0  0  0  0  0  0  0  0999 V2000
    6.9861   -1.3803    0.0000 O   0  0  0  0  0  0  0  0  0  0  0  0
    6.6917   -3.3418    0.0000 O   0  0  0  0  0  0  0  0  0  0  0  0
    8.6426    1.7700    0.0000 O   0  0  0  0  0  0  0  0  0  0  0  0
    3.5307    2.9595    0.0000 O   0  0  0  0  0  0  0  0  0  0  0  0
    9.6583    0.3670    0.0000 O   0  0  0  0  0  0  0  0  0  0  0  0
    2.0000    2.1490    0.0000 O   0  0  0  0  0  0  0  0  0  0  0  0
    5.4025   -2.1850    0.0000 N   0  0  0  0  0  0  0  0  0  0  0  0
    5.4025   -0.5756    0.0000 C   0  0  0  0  0  0  0  0  0  0  0  0
    4.4563   -0.8803    0.0000 C   0  0  0  0  0  0  0  0  0  0  0  0
    5.9861   -1.3803    0.0000 C   0  0  0  0  0  0  0  0  0  0  0  0
    4.4563   -1.8803    0.0000 C   0  0  0  0  0  0  0  0  0  0  0  0
    6.2125    0.0108    0.0000 C   0  0  0  0  0  0  0  0  0  0  0  0
    4.9345    0.3082    0.0000 C   0  0  0  0  0  0  0  0  0  0  0  0
    3.5902   -0.3803    0.0000 C   0  0  0  0  0  0  0  0  0  0  0  0
    3.5902   -2.3803    0.0000 C   0  0  0  0  0  0  0  0  0  0  0  0
    7.1254   -0.3975    0.0000 C   0  0  0  0  0  0  0  0  0  0  0  0
    5.4659    1.1553    0.0000 C   0  0  0  0  0  0  0  0  0  0  0  0
    3.9352    0.3448    0.0000 C   0  0  0  0  0  0  0  0  0  0  0  0
    6.1097    1.0055    0.0000 C   0  0  0  0  0  0  0  0  0  0  0  0
    5.7132   -3.1356    0.0000 C   0  0  0  0  0  0  0  0  0  0  0  0
    2.7242   -0.8803    0.0000 C   0  0  0  0  0  0  0  0  0  0  0  0
    2.7242   -1.8803    0.0000 C   0  0  0  0  0  0  0  0  0  0  0  0
    7.9354    0.1889    0.0000 C   0  0  0  0  0  0  0  0  0  0  0  0
    4.9980    2.0391    0.0000 C   0  0  0  0  0  0  0  0  0  0  0  0
    6.9198    1.5919    0.0000 C   0  0  0  0  0  0  0  0  0  0  0  0
    3.4673    1.2286    0.0000 C   0  0  0  0  0  0  0  0  0  0  0  0
    7.8326    1.1836    0.0000 C   0  0  0  0  0  0  0  0  0  0  0  0
    3.9987    2.0757    0.0000 C   0  0  0  0  0  0  0  0  0  0  0  0
    5.0453   -3.8798    0.0000 C   0  0  0  0  0  0  0  0  0  0  0  0
    9.5555    1.3616    0.0000 C   0  0  0  0  0  0  0  0  0  0  0  0
    2.5314    2.9961    0.0000 C   0  0  0  0  0  0  0  0  0  0  0  0
    2.0634    3.8798    0.0000 C   0  0  0  0  0  0  0  0  0  0  0  0
   10.3655    1.9480    0.0000 C   0  0  0  0  0  0  0  0  0  0  0  0
    3.5902    0.2397    0.0000 H   0  0  0  0  0  0  0  0  0  0  0  0
    3.5902   -3.0003    0.0000 H   0  0  0  0  0  0  0  0  0  0  0  0
    6.0855    1.1326    0.0000 H   0  0  0  0  0  0  0  0  0  0  0  0
    7.1891   -1.0142    0.0000 H   0  0  0  0  0  0  0  0  0  0  0  0
    3.6058   -0.1804    0.0000 H   0  0  0  0  0  0  0  0  0  0  0  0
    5.5438    1.2587    0.0000 H   0  0  0  0  0  0  0  0  0  0  0  0
    2.1873   -0.5703    0.0000 H   0  0  0  0  0  0  0  0  0  0  0  0
    2.1873   -2.1903    0.0000 H   0  0  0  0  0  0  0  0  0  0  0  0
    8.5014   -0.0643    0.0000 H   0  0  0  0  0  0  0  0  0  0  0  0
    5.3274    2.5643    0.0000 H   0  0  0  0  0  0  0  0  0  0  0  0
    6.8560    2.2086    0.0000 H   0  0  0  0  0  0  0  0  0  0  0  0
    2.8477    1.2513    0.0000 H   0  0  0  0  0  0  0  0  0  0  0  0
    4.5838   -3.4658    0.0000 H   0  0  0  0  0  0  0  0  0  0  0  0
    4.6312   -4.3413    0.0000 H   0  0  0  0  0  0  0  0  0  0  0  0
    5.5068   -4.2939    0.0000 H   0  0  0  0  0  0  0  0  0  0  0  0
    2.6114    4.1700    0.0000 H   0  0  0  0  0  0  0  0  0  0  0  0
    1.7733    4.4278    0.0000 H   0  0  0  0  0  0  0  0  0  0  0  0
    1.5155    3.5897    0.0000 H   0  0  0  0  0  0  0  0  0  0  0  0
   10.7291    1.4458    0.0000 H   0  0  0  0  0  0  0  0  0  0  0  0
   10.8677    2.3116    0.0000 H   0  0  0  0  0  0  0  0  0  0  0  0
   10.0019    2.4503    0.0000 H   0  0  0  0  0  0  0  0  0  0  0  0
  1 10  2  0  0  0  0 
  2 20  2  0  0  0  0 
  3 27  1  0  0  0  0 
  3 30  1  0  0  0  0 
  4 28  1  0  0  0  0 
  4 31  1  0  0  0  0 
  5 30  2  0  0  0  0 
  6 31  2  0  0  0  0 
  7 10  1  0  0  0  0 
  7 11  1  0  0  0  0 
  7 20  1  0  0  0  0 
  8  9  1  0  0  0  0 
  8 10  1  0  0  0  0 
  8 12  1  0  0  0  0 
  8 13  1  0  0  0  0 
  9 11  1  0  0  0  0 
  9 14  2  0  0  0  0 
 11 15  2  0  0  0  0 
 12 16  2  0  0  0  0 
 12 19  1  0  0  0  0 
 13 17  2  0  0  0  0 
 13 18  1  0  0  0  0 
 14 21  1  0  0  0  0 
 14 34  1  0  0  0  0 
 15 22  1  0  0  0  0 
 15 35  1  0  0  0  0 
 16 23  1  0  0  0  0 
 16 37  1  0  0  0  0 
 17 24  1  0  0  0  0 
 17 36  1  0  0  0  0 
 18 26  2  0  0  0  0 
 18 38  1  0  0  0  0 
 19 25  2  0  0  0  0 
 19 39  1  0  0  0  0 
 20 29  1  0  0  0  0 
 21 22  2  0  0  0  0 
 21 40  1  0  0  0  0 
 22 41  1  0  0  0  0 
 23 27  2  0  0  0  0 
 23 42  1  0  0  0  0 
 24 28  2  0  0  0  0 
 24 43  1  0  0  0  0 
 25 27  1  0  0  0  0 
 25 44  1  0  0  0  0 
 26 28  1  0  0  0  0 
 26 45  1  0  0  0  0 
 29 46  1  0  0  0  0 
 29 47  1  0  0  0  0 
 29 48  1  0  0  0  0 
 30 33  1  0  0  0  0 
 31 32  1  0  0  0  0 
 32 49  1  0  0  0  0 
 32 50  1  0  0  0  0 
 32 51  1  0  0  0  0 
 33 52  1  0  0  0  0 
 33 53  1  0  0  0  0 
 33 54  1  0  0  0  0 
M  END
> <cdk:Title>
29321

> <cdk:Remark>
null

> <PUBCHEM_COMPOUND_CID>
29321

> <PUBCHEM_COMPOUND_CANONICALIZED>
1

> <PUBCHEM_CACTVS_COMPLEXITY>
742

> <PUBCHEM_CACTVS_HBOND_ACCEPTOR>
6

> <PUBCHEM_CACTVS_HBOND_DONOR>
0

> <PUBCHEM_CACTVS_ROTATABLE_BOND>
6

> <PUBCHEM_CACTVS_SUBSKEYS>
AAADceB6OAAAAAAAAAAAAAAAAAAAAWAAAAAwYMAAAAAAAFgBUAAAHgAAAAAADgyBmAAyzoMABACIAiXSWACCCAAhIgAIiAEGbIgMJjLEtZuGOijkxDHI6AecyPCPoAAAAAACAABAAAAAAAQAAAAAAAAAAA==

> <PUBCHEM_IUPAC_OPENEYE_NAME>
[4-[3-(4-acetoxyphenyl)-1-acetyl-2-oxo-indolin-3-yl]phenyl] acetate

> <PUBCHEM_IUPAC_CAS_NAME>
acetic acid [4-[1-acetyl-3-(4-acetyloxyphenyl)-2-oxo-3-indolyl]phenyl] ester

> <PUBCHEM_IUPAC_NAME>
[4-[1-acetyl-3-(4-acetyloxyphenyl)-2-oxoindol-3-yl]phenyl] acetate

> <PUBCHEM_IUPAC_SYSTEMATIC_NAME>
[4-[3-(4-acetyloxyphenyl)-1-ethanoyl-2-oxidanylidene-indol-3-yl]phenyl] ethanoate

> <PUBCHEM_IUPAC_TRADITIONAL_NAME>
acetic acid [4-[3-(4-acetoxyphenyl)-1-acetyl-2-keto-indolin-3-yl]phenyl] ester

> <PUBCHEM_IUPAC_INCHI>
InChI=1S/C26H21NO6/c1-16(28)27-24-7-5-4-6-23(24)26(25(27)31,19-8-12-21(13-9-19)32-17(2)29)20-10-14-22(15-11-20)33-18(3)30/h4-15H,1-3H3

> <PUBCHEM_IUPAC_INCHIKEY>
JPGUEMQIAGJQSJ-UHFFFAOYSA-N

> <PUBCHEM_XLOGP3_AA>
3.4

> <PUBCHEM_EXACT_MASS>
443.136887

> <PUBCHEM_MOLECULAR_FORMULA>
C26H21NO6

> <PUBCHEM_MOLECULAR_WEIGHT>
443.44804

> <PUBCHEM_OPENEYE_CAN_SMILES>
CC(=O)N1C2=CC=CC=C2C(C1=O)(C3=CC=C(C=C3)OC(=O)C)C4=CC=C(C=C4)OC(=O)C

> <PUBCHEM_OPENEYE_ISO_SMILES>
CC(=O)N1C2=CC=CC=C2C(C1=O)(C3=CC=C(C=C3)OC(=O)C)C4=CC=C(C=C4)OC(=O)C

> <PUBCHEM_CACTVS_TPSA>
90

> <PUBCHEM_MONOISOTOPIC_WEIGHT>
443.136887

> <PUBCHEM_TOTAL_CHARGE>
0

> <PUBCHEM_HEAVY_ATOM_COUNT>
33

> <PUBCHEM_ATOM_DEF_STEREO_COUNT>
0

> <PUBCHEM_ATOM_UDEF_STEREO_COUNT>
0

> <PUBCHEM_BOND_DEF_STEREO_COUNT>
0

> <PUBCHEM_BOND_UDEF_STEREO_COUNT>
0

> <PUBCHEM_ISOTOPIC_ATOM_COUNT>
0

> <PUBCHEM_COMPONENT_COUNT>
1

> <PUBCHEM_CACTVS_TAUTO_COUNT>
1

> <PUBCHEM_COORDINATE_TYPE>
1
5
255

> <PUBCHEM_BONDANNOTATIONS>
11  15  8
12  16  8
12  19  8
13  17  8
13  18  8
14  21  8
15  22  8
16  23  8
17  24  8
18  26  8
19  25  8
21  22  8
23  27  8
24  28  8
25  27  8
26  28  8
9  11  8
9  14  8

> <DRUG_ID>
w69

> <DRUG_NAME>
Triacetyldiphenolisatin

$$$$
30951
  CDK     0927151942
null
 26 26  0  0  0  0  0  0  0  0999 V2000
    2.0000    0.9050    0.0000 Cl  0  0  0  0  0  0  0  0  0  0  0  0
    3.7320    1.9050    0.0000 O   0  0  0  0  0  0  0  0  0  0  0  0
    4.5981   -3.5950    0.0000 O   0  0  0  0  0  0  0  0  0  0  0  0
    5.4641   -2.0950    0.0000 O   0  0  0  0  0  0  0  0  0  0  0  0
    3.7320   -1.0950    0.0000 C   0  0  0  0  0  0  0  0  0  0  0  0
    3.7320   -2.0950    0.0000 C   0  0  0  0  0  0  0  0  0  0  0  0
    2.8660   -0.5950    0.0000 C   0  0  0  0  0  0  0  0  0  0  0  0
    4.5981   -0.5950    0.0000 C   0  0  0  0  0  0  0  0  0  0  0  0
    3.7320    0.9050    0.0000 C   0  0  0  0  0  0  0  0  0  0  0  0
    2.8660    0.4050    0.0000 C   0  0  0  0  0  0  0  0  0  0  0  0
    4.5981    0.4050    0.0000 C   0  0  0  0  0  0  0  0  0  0  0  0
    4.5981   -2.5950    0.0000 C   0  0  0  0  0  0  0  0  0  0  0  0
    4.5981    2.4050    0.0000 C   0  0  0  0  0  0  0  0  0  0  0  0
    4.5981    3.4050    0.0000 C   0  0  0  0  0  0  0  0  0  0  0  0
    5.4641    3.9050    0.0000 C   0  0  0  0  0  0  0  0  0  0  0  0
    3.1215   -1.9873    0.0000 H   0  0  0  0  0  0  0  0  0  0  0  0
    3.5200   -2.6776    0.0000 H   0  0  0  0  0  0  0  0  0  0  0  0
    2.3291   -0.9050    0.0000 H   0  0  0  0  0  0  0  0  0  0  0  0
    5.1350   -0.9050    0.0000 H   0  0  0  0  0  0  0  0  0  0  0  0
    5.1350    0.7150    0.0000 H   0  0  0  0  0  0  0  0  0  0  0  0
    4.8101    1.8224    0.0000 H   0  0  0  0  0  0  0  0  0  0  0  0
    5.2087    2.5127    0.0000 H   0  0  0  0  0  0  0  0  0  0  0  0
    4.0611    3.7150    0.0000 H   0  0  0  0  0  0  0  0  0  0  0  0
    5.1350   -3.9050    0.0000 H   0  0  0  0  0  0  0  0  0  0  0  0
    6.0010    3.5950    0.0000 H   0  0  0  0  0  0  0  0  0  0  0  0
    5.4641    4.5250    0.0000 H   0  0  0  0  0  0  0  0  0  0  0  0
  1 10  1  0  0  0  0 
  2  9  1  0  0  0  0 
  2 13  1  0  0  0  0 
  3 12  1  0  0  0  0 
  3 24  1  0  0  0  0 
  4 12  2  0  0  0  0 
  5  6  1  0  0  0  0 
  5  7  2  0  0  0  0 
  5  8  1  0  0  0  0 
  6 12  1  0  0  0  0 
  6 16  1  0  0  0  0 
  6 17  1  0  0  0  0 
  7 10  1  0  0  0  0 
  7 18  1  0  0  0  0 
  8 11  2  0  0  0  0 
  8 19  1  0  0  0  0 
  9 10  2  0  0  0  0 
  9 11  1  0  0  0  0 
 11 20  1  0  0  0  0 
 13 14  1  0  0  0  0 
 13 21  1  0  0  0  0 
 13 22  1  0  0  0  0 
 14 15  2  0  0  0  0 
 14 23  1  0  0  0  0 
 15 25  1  0  0  0  0 
 15 26  1  0  0  0  0 
M  END
> <cdk:Title>
30951

> <cdk:Remark>
null

> <PUBCHEM_COMPOUND_CID>
30951

> <PUBCHEM_COMPOUND_CANONICALIZED>
1

> <PUBCHEM_CACTVS_COMPLEXITY>
230

> <PUBCHEM_CACTVS_HBOND_ACCEPTOR>
3

> <PUBCHEM_CACTVS_HBOND_DONOR>
1

> <PUBCHEM_CACTVS_ROTATABLE_BOND>
5

> <PUBCHEM_CACTVS_SUBSKEYS>
AAADccBwMAAEAAAAAAAAAAAAAAAAAAAAAAAwAAAAAAAAAAABAAAAGgIACAAADAagmCIwDoAABgCIAiDSCAACCAAgJUAIiAEGC4gMJjOFNxqCeCCkwBEIqAeIyKCOIAAAIAAACABAAABAAAAQAAAAAAAAAA==

> <PUBCHEM_IUPAC_OPENEYE_NAME>
2-(4-allyloxy-3-chloro-phenyl)acetic acid

> <PUBCHEM_IUPAC_CAS_NAME>
2-(3-chloro-4-prop-2-enoxyphenyl)acetic acid

> <PUBCHEM_IUPAC_NAME>
2-(3-chloro-4-prop-2-enoxyphenyl)acetic acid

> <PUBCHEM_IUPAC_SYSTEMATIC_NAME>
2-(3-chloranyl-4-prop-2-enoxy-phenyl)ethanoic acid

> <PUBCHEM_IUPAC_TRADITIONAL_NAME>
2-(4-allyloxy-3-chloro-phenyl)acetic acid

> <PUBCHEM_IUPAC_INCHI>
InChI=1S/C11H11ClO3/c1-2-5-15-10-4-3-8(6-9(10)12)7-11(13)14/h2-4,6H,1,5,7H2,(H,13,14)

> <PUBCHEM_IUPAC_INCHIKEY>
ARHWPKZXBHOEEE-UHFFFAOYSA-N

> <PUBCHEM_XLOGP3>
2.5

> <PUBCHEM_EXACT_MASS>
226.039672

> <PUBCHEM_MOLECULAR_FORMULA>
C11H11ClO3

> <PUBCHEM_MOLECULAR_WEIGHT>
226.65624

> <PUBCHEM_OPENEYE_CAN_SMILES>
C=CCOC1=C(C=C(C=C1)CC(=O)O)Cl

> <PUBCHEM_OPENEYE_ISO_SMILES>
C=CCOC1=C(C=C(C=C1)CC(=O)O)Cl

> <PUBCHEM_CACTVS_TPSA>
46.5

> <PUBCHEM_MONOISOTOPIC_WEIGHT>
226.039672

> <PUBCHEM_TOTAL_CHARGE>
0

> <PUBCHEM_HEAVY_ATOM_COUNT>
15

> <PUBCHEM_ATOM_DEF_STEREO_COUNT>
0

> <PUBCHEM_ATOM_UDEF_STEREO_COUNT>
0

> <PUBCHEM_BOND_DEF_STEREO_COUNT>
0

> <PUBCHEM_BOND_UDEF_STEREO_COUNT>
0

> <PUBCHEM_ISOTOPIC_ATOM_COUNT>
0

> <PUBCHEM_COMPONENT_COUNT>
1

> <PUBCHEM_CACTVS_TAUTO_COUNT>
4

> <PUBCHEM_COORDINATE_TYPE>
1
5
255

> <PUBCHEM_BONDANNOTATIONS>
5  7  8
5  8  8
7  10  8
8  11  8
9  10  8
9  11  8

> <DRUG_ID>
w7

> <DRUG_NAME>
Alclofenac

$$$$
54897
  CDK     0927151942
null
 50 52  0  0  0  0  0  0  0  0999 V2000
    2.0000   -1.4446    0.0000 Cl  0  0  0  0  0  0  0  0  0  0  0  0
   10.1279   -2.4446    0.0000 Cl  0  0  0  0  0  0  0  0  0  0  0  0
    4.2086   -0.1513    0.0000 O   0  0  0  0  0  0  0  0  0  0  0  0
    5.4978    1.0055    0.0000 N   0  0  0  0  0  0  0  0  0  0  0  0
    4.5981   -1.9446    0.0000 N   0  0  0  0  0  0  0  0  0  0  0  0
    5.5443   -3.2493    0.0000 N   0  0  0  0  0  0  0  0  0  0  0  0
    5.5443   -1.6399    0.0000 C   0  0  0  0  0  0  0  0  0  0  0  0
    5.8550   -0.6893    0.0000 C   0  0  0  0  0  0  0  0  0  0  0  0
    4.8299    1.7498    0.0000 C   0  0  0  0  0  0  0  0  0  0  0  0
    6.4763    1.2117    0.0000 C   0  0  0  0  0  0  0  0  0  0  0  0
    5.1871    0.0550    0.0000 C   0  0  0  0  0  0  0  0  0  0  0  0
    6.1279   -2.4446    0.0000 C   0  0  0  0  0  0  0  0  0  0  0  0
    6.7870    2.1622    0.0000 C   0  0  0  0  0  0  0  0  0  0  0  0
    5.1406    2.7003    0.0000 C   0  0  0  0  0  0  0  0  0  0  0  0
    4.5981   -2.9446    0.0000 C   0  0  0  0  0  0  0  0  0  0  0  0
    7.1279   -2.4446    0.0000 C   0  0  0  0  0  0  0  0  0  0  0  0
    3.7320   -1.4446    0.0000 C   0  0  0  0  0  0  0  0  0  0  0  0
    3.7320   -3.4446    0.0000 C   0  0  0  0  0  0  0  0  0  0  0  0
    7.7654    2.3684    0.0000 C   0  0  0  0  0  0  0  0  0  0  0  0
    4.4727    3.4446    0.0000 C   0  0  0  0  0  0  0  0  0  0  0  0
    2.8660   -1.9446    0.0000 C   0  0  0  0  0  0  0  0  0  0  0  0
    2.8660   -2.9446    0.0000 C   0  0  0  0  0  0  0  0  0  0  0  0
    7.6279   -3.3106    0.0000 C   0  0  0  0  0  0  0  0  0  0  0  0
    7.6279   -1.5786    0.0000 C   0  0  0  0  0  0  0  0  0  0  0  0
    8.6279   -3.3106    0.0000 C   0  0  0  0  0  0  0  0  0  0  0  0
    8.6279   -1.5786    0.0000 C   0  0  0  0  0  0  0  0  0  0  0  0
    9.1279   -2.4446    0.0000 C   0  0  0  0  0  0  0  0  0  0  0  0
    6.4019   -0.9814    0.0000 H   0  0  0  0  0  0  0  0  0  0  0  0
    6.2375   -0.2014    0.0000 H   0  0  0  0  0  0  0  0  0  0  0  0
    4.2830    2.0418    0.0000 H   0  0  0  0  0  0  0  0  0  0  0  0
    4.4474    1.2619    0.0000 H   0  0  0  0  0  0  0  0  0  0  0  0
    6.4968    0.5920    0.0000 H   0  0  0  0  0  0  0  0  0  0  0  0
    7.0901    1.1243    0.0000 H   0  0  0  0  0  0  0  0  0  0  0  0
    5.6875    2.4083    0.0000 H   0  0  0  0  0  0  0  0  0  0  0  0
    5.5232    3.1882    0.0000 H   0  0  0  0  0  0  0  0  0  0  0  0
    6.7664    2.7819    0.0000 H   0  0  0  0  0  0  0  0  0  0  0  0
    6.1731    2.2496    0.0000 H   0  0  0  0  0  0  0  0  0  0  0  0
    3.7320   -0.8246    0.0000 H   0  0  0  0  0  0  0  0  0  0  0  0
    3.7320   -4.0646    0.0000 H   0  0  0  0  0  0  0  0  0  0  0  0
    4.9342    3.8587    0.0000 H   0  0  0  0  0  0  0  0  0  0  0  0
    4.0587    3.9061    0.0000 H   0  0  0  0  0  0  0  0  0  0  0  0
    4.0113    3.0305    0.0000 H   0  0  0  0  0  0  0  0  0  0  0  0
    7.8933    1.7618    0.0000 H   0  0  0  0  0  0  0  0  0  0  0  0
    8.3721    2.4963    0.0000 H   0  0  0  0  0  0  0  0  0  0  0  0
    7.6376    2.9751    0.0000 H   0  0  0  0  0  0  0  0  0  0  0  0
    2.3291   -3.2546    0.0000 H   0  0  0  0  0  0  0  0  0  0  0  0
    7.3179   -3.8476    0.0000 H   0  0  0  0  0  0  0  0  0  0  0  0
    7.3179   -1.0416    0.0000 H   0  0  0  0  0  0  0  0  0  0  0  0
    8.9379   -3.8476    0.0000 H   0  0  0  0  0  0  0  0  0  0  0  0
    8.9379   -1.0416    0.0000 H   0  0  0  0  0  0  0  0  0  0  0  0
  1 21  1  0  0  0  0 
  2 27  1  0  0  0  0 
  3 11  2  0  0  0  0 
  4  9  1  0  0  0  0 
  4 10  1  0  0  0  0 
  4 11  1  0  0  0  0 
  5  7  1  0  0  0  0 
  5 15  1  0  0  0  0 
  5 17  1  0  0  0  0 
  6 12  1  0  0  0  0 
  6 15  2  0  0  0  0 
  7  8  1  0  0  0  0 
  7 12  2  0  0  0  0 
  8 11  1  0  0  0  0 
  8 28  1  0  0  0  0 
  8 29  1  0  0  0  0 
  9 14  1  0  0  0  0 
  9 30  1  0  0  0  0 
  9 31  1  0  0  0  0 
 10 13  1  0  0  0  0 
 10 32  1  0  0  0  0 
 10 33  1  0  0  0  0 
 12 16  1  0  0  0  0 
 13 19  1  0  0  0  0 
 13 36  1  0  0  0  0 
 13 37  1  0  0  0  0 
 14 20  1  0  0  0  0 
 14 34  1  0  0  0  0 
 14 35  1  0  0  0  0 
 15 18  1  0  0  0  0 
 16 23  2  0  0  0  0 
 16 24  1  0  0  0  0 
 17 21  2  0  0  0  0 
 17 38  1  0  0  0  0 
 18 22  2  0  0  0  0 
 18 39  1  0  0  0  0 
 19 43  1  0  0  0  0 
 19 44  1  0  0  0  0 
 19 45  1  0  0  0  0 
 20 40  1  0  0  0  0 
 20 41  1  0  0  0  0 
 20 42  1  0  0  0  0 
 21 22  1  0  0  0  0 
 22 46  1  0  0  0  0 
 23 25  1  0  0  0  0 
 23 47  1  0  0  0  0 
 24 26  2  0  0  0  0 
 24 48  1  0  0  0  0 
 25 27  2  0  0  0  0 
 25 49  1  0  0  0  0 
 26 27  1  0  0  0  0 
 26 50  1  0  0  0  0 
M  END
> <cdk:Title>
54897

> <cdk:Remark>
null

> <PUBCHEM_COMPOUND_CID>
54897

> <PUBCHEM_COMPOUND_CANONICALIZED>
1

> <PUBCHEM_CACTVS_COMPLEXITY>
478

> <PUBCHEM_CACTVS_HBOND_ACCEPTOR>
2

> <PUBCHEM_CACTVS_HBOND_DONOR>
0

> <PUBCHEM_CACTVS_ROTATABLE_BOND>
7

> <PUBCHEM_CACTVS_SUBSKEYS>
AAADceB7IAAGAAAAAAAAAAAAAAAAAWAAAAA8QAAAAAAAAFgB8AAAHgIAAAAADArBnyQ/sJ8MGACoAzd3dACCgC0xF6AJ2CE4dpiIaPrB35HUIAhohgLIyCcciICOBAAAAAAAAAAIAAAAAAAAAAAAAAAAAA==

> <PUBCHEM_IUPAC_OPENEYE_NAME>
2-[6-chloro-2-(4-chlorophenyl)imidazo[1,2-a]pyridin-3-yl]-N,N-dipropyl-acetamide

> <PUBCHEM_IUPAC_CAS_NAME>
2-[6-chloro-2-(4-chlorophenyl)-3-imidazo[1,2-a]pyridinyl]-N,N-dipropylacetamide

> <PUBCHEM_IUPAC_NAME>
2-[6-chloro-2-(4-chlorophenyl)imidazo[1,2-a]pyridin-3-yl]-N,N-dipropylacetamide

> <PUBCHEM_IUPAC_SYSTEMATIC_NAME>
2-[6-chloranyl-2-(4-chlorophenyl)imidazo[1,2-a]pyridin-3-yl]-N,N-dipropyl-ethanamide

> <PUBCHEM_IUPAC_TRADITIONAL_NAME>
2-[6-chloro-2-(4-chlorophenyl)imidazo[1,2-a]pyridin-3-yl]-N,N-dipropyl-acetamide

> <PUBCHEM_IUPAC_INCHI>
InChI=1S/C21H23Cl2N3O/c1-3-11-25(12-4-2)20(27)13-18-21(15-5-7-16(22)8-6-15)24-19-10-9-17(23)14-26(18)19/h5-10,14H,3-4,11-13H2,1-2H3

> <PUBCHEM_IUPAC_INCHIKEY>
JRTIDHTUMYMPRU-UHFFFAOYSA-N

> <PUBCHEM_XLOGP3>
4.8

> <PUBCHEM_EXACT_MASS>
403.121818

> <PUBCHEM_MOLECULAR_FORMULA>
C21H23Cl2N3O

> <PUBCHEM_MOLECULAR_WEIGHT>
404.33282

> <PUBCHEM_OPENEYE_CAN_SMILES>
CCCN(CCC)C(=O)CC1=C(N=C2N1C=C(C=C2)Cl)C3=CC=C(C=C3)Cl

> <PUBCHEM_OPENEYE_ISO_SMILES>
CCCN(CCC)C(=O)CC1=C(N=C2N1C=C(C=C2)Cl)C3=CC=C(C=C3)Cl

> <PUBCHEM_CACTVS_TPSA>
37.6

> <PUBCHEM_MONOISOTOPIC_WEIGHT>
403.121818

> <PUBCHEM_TOTAL_CHARGE>
0

> <PUBCHEM_HEAVY_ATOM_COUNT>
27

> <PUBCHEM_ATOM_DEF_STEREO_COUNT>
0

> <PUBCHEM_ATOM_UDEF_STEREO_COUNT>
0

> <PUBCHEM_BOND_DEF_STEREO_COUNT>
0

> <PUBCHEM_BOND_UDEF_STEREO_COUNT>
0

> <PUBCHEM_ISOTOPIC_ATOM_COUNT>
0

> <PUBCHEM_COMPONENT_COUNT>
1

> <PUBCHEM_CACTVS_TAUTO_COUNT>
1

> <PUBCHEM_COORDINATE_TYPE>
1
5
255

> <PUBCHEM_BONDANNOTATIONS>
15  18  8
16  23  8
16  24  8
17  21  8
18  22  8
21  22  8
23  25  8
24  26  8
25  27  8
26  27  8
5  15  8
5  17  8
5  7  8
6  12  8
6  15  8
7  12  8

> <DRUG_ID>
w70

> <DRUG_NAME>
Alpidem

$$$$
2099
  CDK     0927151942
null
 40 43  0  0  0  0  0  0  0  0999 V2000
    5.3923   -2.1068    0.0000 O   0  0  0  0  0  0  0  0  0  0  0  0
    6.7328   -0.9507    0.0000 N   0  0  0  0  0  0  0  0  0  0  0  0
    4.5274    1.1642    0.0000 N   0  0  0  0  0  0  0  0  0  0  0  0
    9.1186   -2.1642    0.0000 N   0  0  0  0  0  0  0  0  0  0  0  0
    9.7824   -0.6886    0.0000 N   0  0  0  0  0  0  0  0  0  0  0  0
    5.3364    0.5764    0.0000 C   0  0  0  0  0  0  0  0  0  0  0  0
    6.3518    0.8087    0.0000 C   0  0  0  0  0  0  0  0  0  0  0  0
    5.0274   -0.3746    0.0000 C   0  0  0  0  0  0  0  0  0  0  0  0
    7.0547    0.0400    0.0000 C   0  0  0  0  0  0  0  0  0  0  0  0
    4.0274   -0.3746    0.0000 C   0  0  0  0  0  0  0  0  0  0  0  0
    3.7183    0.5764    0.0000 C   0  0  0  0  0  0  0  0  0  0  0  0
    5.7123   -1.1594    0.0000 C   0  0  0  0  0  0  0  0  0  0  0  0
    7.3991   -1.6964    0.0000 C   0  0  0  0  0  0  0  0  0  0  0  0
    4.5274    2.1642    0.0000 C   0  0  0  0  0  0  0  0  0  0  0  0
    3.3424   -1.1594    0.0000 C   0  0  0  0  0  0  0  0  0  0  0  0
    2.7029    0.8087    0.0000 C   0  0  0  0  0  0  0  0  0  0  0  0
    8.3780   -1.4922    0.0000 C   0  0  0  0  0  0  0  0  0  0  0  0
    2.3219   -0.9507    0.0000 C   0  0  0  0  0  0  0  0  0  0  0  0
    2.0000    0.0400    0.0000 C   0  0  0  0  0  0  0  0  0  0  0  0
    8.7883   -0.5803    0.0000 C   0  0  0  0  0  0  0  0  0  0  0  0
    8.2916    0.2877    0.0000 C   0  0  0  0  0  0  0  0  0  0  0  0
    9.9866   -1.6676    0.0000 C   0  0  0  0  0  0  0  0  0  0  0  0
    6.8742    1.1426    0.0000 H   0  0  0  0  0  0  0  0  0  0  0  0
    6.1122    1.3805    0.0000 H   0  0  0  0  0  0  0  0  0  0  0  0
    7.6029   -0.2497    0.0000 H   0  0  0  0  0  0  0  0  0  0  0  0
    7.4339    0.5305    0.0000 H   0  0  0  0  0  0  0  0  0  0  0  0
    6.8720   -2.0229    0.0000 H   0  0  0  0  0  0  0  0  0  0  0  0
    7.6291   -2.2721    0.0000 H   0  0  0  0  0  0  0  0  0  0  0  0
    5.1474    2.1642    0.0000 H   0  0  0  0  0  0  0  0  0  0  0  0
    4.5274    2.7842    0.0000 H   0  0  0  0  0  0  0  0  0  0  0  0
    3.9074    2.1642    0.0000 H   0  0  0  0  0  0  0  0  0  0  0  0
    3.5408   -1.7468    0.0000 H   0  0  0  0  0  0  0  0  0  0  0  0
    2.5182    1.4005    0.0000 H   0  0  0  0  0  0  0  0  0  0  0  0
    1.9088   -1.4130    0.0000 H   0  0  0  0  0  0  0  0  0  0  0  0
    1.3940    0.1712    0.0000 H   0  0  0  0  0  0  0  0  0  0  0  0
   10.1990   -0.2295    0.0000 H   0  0  0  0  0  0  0  0  0  0  0  0
    8.8298    0.5956    0.0000 H   0  0  0  0  0  0  0  0  0  0  0  0
    7.9837    0.8258    0.0000 H   0  0  0  0  0  0  0  0  0  0  0  0
    7.7535   -0.0202    0.0000 H   0  0  0  0  0  0  0  0  0  0  0  0
   10.5520   -1.9219    0.0000 H   0  0  0  0  0  0  0  0  0  0  0  0
  1 12  2  0  0  0  0 
  2  9  1  0  0  0  0 
  2 12  1  0  0  0  0 
  2 13  1  0  0  0  0 
  3  6  1  0  0  0  0 
  3 11  1  0  0  0  0 
  3 14  1  0  0  0  0 
  4 17  1  0  0  0  0 
  4 22  2  0  0  0  0 
  5 20  1  0  0  0  0 
  5 22  1  0  0  0  0 
  5 36  1  0  0  0  0 
  6  7  1  0  0  0  0 
  6  8  2  0  0  0  0 
  7  9  1  0  0  0  0 
  7 23  1  0  0  0  0 
  7 24  1  0  0  0  0 
  8 10  1  0  0  0  0 
  8 12  1  0  0  0  0 
  9 25  1  0  0  0  0 
  9 26  1  0  0  0  0 
 10 11  1  0  0  0  0 
 10 15  2  0  0  0  0 
 11 16  2  0  0  0  0 
 13 17  1  0  0  0  0 
 13 27  1  0  0  0  0 
 13 28  1  0  0  0  0 
 14 29  1  0  0  0  0 
 14 30  1  0  0  0  0 
 14 31  1  0  0  0  0 
 15 18  1  0  0  0  0 
 15 32  1  0  0  0  0 
 16 19  1  0  0  0  0 
 16 33  1  0  0  0  0 
 17 20  2  0  0  0  0 
 18 19  2  0  0  0  0 
 18 34  1  0  0  0  0 
 19 35  1  0  0  0  0 
 20 21  1  0  0  0  0 
 21 37  1  0  0  0  0 
 21 38  1  0  0  0  0 
 21 39  1  0  0  0  0 
 22 40  1  0  0  0  0 
M  END
> <cdk:Title>
2099

> <cdk:Remark>
null

> <PUBCHEM_COMPOUND_CID>
2099

> <PUBCHEM_COMPOUND_CANONICALIZED>
1

> <PUBCHEM_CACTVS_COMPLEXITY>
442

> <PUBCHEM_CACTVS_HBOND_ACCEPTOR>
2

> <PUBCHEM_CACTVS_HBOND_DONOR>
1

> <PUBCHEM_CACTVS_ROTATABLE_BOND>
2

> <PUBCHEM_CACTVS_SUBSKEYS>
AAADceB7oAAAAAAAAAAAAAAAAAAAAWLAAAA8QAAAAAAAAFgB/AAAHgAQAAAADAjBngQ30PfNkACoAyVzdACCgC21EqAJ2aE4dNiIaPrA3ZGUIYholgLIyWccicCOgAAAAAACAAAAAAAAAAQAAAAAAAAAAA==

> <PUBCHEM_IUPAC_OPENEYE_NAME>
5-methyl-2-[(5-methyl-1H-imidazol-4-yl)methyl]-3,4-dihydropyrido[4,3-b]indol-1-one

> <PUBCHEM_IUPAC_CAS_NAME>
5-methyl-2-[(5-methyl-1H-imidazol-4-yl)methyl]-3,4-dihydropyrido[4,3-b]indol-1-one

> <PUBCHEM_IUPAC_NAME>
5-methyl-2-[(5-methyl-1H-imidazol-4-yl)methyl]-3,4-dihydropyrido[4,3-b]indol-1-one

> <PUBCHEM_IUPAC_SYSTEMATIC_NAME>
5-methyl-2-[(5-methyl-1H-imidazol-4-yl)methyl]-3,4-dihydropyrido[4,3-b]indol-1-one

> <PUBCHEM_IUPAC_TRADITIONAL_NAME>
5-methyl-2-[(5-methyl-1H-imidazol-4-yl)methyl]-3,4-dihydropyrid[4,3-b]indol-1-one

> <PUBCHEM_IUPAC_INCHI>
InChI=1S/C17H18N4O/c1-11-13(19-10-18-11)9-21-8-7-15-16(17(21)22)12-5-3-4-6-14(12)20(15)2/h3-6,10H,7-9H2,1-2H3,(H,18,19)

> <PUBCHEM_IUPAC_INCHIKEY>
JSWZEAMFRNKZNL-UHFFFAOYSA-N

> <PUBCHEM_XLOGP3_AA>
1.6

> <PUBCHEM_EXACT_MASS>
294.148061

> <PUBCHEM_MOLECULAR_FORMULA>
C17H18N4O

> <PUBCHEM_MOLECULAR_WEIGHT>
294.35102

> <PUBCHEM_OPENEYE_CAN_SMILES>
CC1=C(N=CN1)CN2CCC3=C(C2=O)C4=CC=CC=C4N3C

> <PUBCHEM_OPENEYE_ISO_SMILES>
CC1=C(N=CN1)CN2CCC3=C(C2=O)C4=CC=CC=C4N3C

> <PUBCHEM_CACTVS_TPSA>
53.9

> <PUBCHEM_MONOISOTOPIC_WEIGHT>
294.148061

> <PUBCHEM_TOTAL_CHARGE>
0

> <PUBCHEM_HEAVY_ATOM_COUNT>
22

> <PUBCHEM_ATOM_DEF_STEREO_COUNT>
0

> <PUBCHEM_ATOM_UDEF_STEREO_COUNT>
0

> <PUBCHEM_BOND_DEF_STEREO_COUNT>
0

> <PUBCHEM_BOND_UDEF_STEREO_COUNT>
0

> <PUBCHEM_ISOTOPIC_ATOM_COUNT>
0

> <PUBCHEM_COMPONENT_COUNT>
1

> <PUBCHEM_CACTVS_TAUTO_COUNT>
2

> <PUBCHEM_COORDINATE_TYPE>
1
5
255

> <PUBCHEM_BONDANNOTATIONS>
10  11  8
10  15  8
11  16  8
15  18  8
16  19  8
17  20  8
18  19  8
3  11  8
3  6  8
4  17  8
4  22  8
5  20  8
5  22  8
6  8  8
8  10  8

> <DRUG_ID>
w71

> <DRUG_NAME>
Alosetron

$$$$
104850
  CDK     0927151942
null
 51 54  0  0  0  0  0  0  0  0999 V2000
    4.5204   -1.3874    0.0000 Cl  0  0  0  0  0  0  0  0  0  0  0  0
   10.8656   -1.0357    0.0000 Cl  0  0  0  0  0  0  0  0  0  0  0  0
    6.2524   -4.3874    0.0000 Cl  0  0  0  0  0  0  0  0  0  0  0  0
    5.5714    2.8739    0.0000 O   0  0  0  0  0  0  0  0  0  0  0  0
    3.5823    2.6649    0.0000 N   0  0  0  0  0  0  0  0  0  0  0  0
    4.1701    1.8559    0.0000 N   0  0  0  0  0  0  0  0  0  0  0  0
    6.2524   -0.3875    0.0000 N   0  0  0  0  0  0  0  0  0  0  0  0
    5.4434    0.2003    0.0000 N   0  0  0  0  0  0  0  0  0  0  0  0
    2.4067    4.2829    0.0000 C   0  0  0  0  0  0  0  0  0  0  0  0
    3.4013    4.3874    0.0000 C   0  0  0  0  0  0  0  0  0  0  0  0
    2.0000    3.3694    0.0000 C   0  0  0  0  0  0  0  0  0  0  0  0
    3.9890    3.5784    0.0000 C   0  0  0  0  0  0  0  0  0  0  0  0
    2.5878    2.5604    0.0000 C   0  0  0  0  0  0  0  0  0  0  0  0
    5.1646    1.9604    0.0000 C   0  0  0  0  0  0  0  0  0  0  0  0
    5.7524    1.1514    0.0000 C   0  0  0  0  0  0  0  0  0  0  0  0
    6.7524    1.1514    0.0000 C   0  0  0  0  0  0  0  0  0  0  0  0
    7.0614    0.2003    0.0000 C   0  0  0  0  0  0  0  0  0  0  0  0
    8.0125   -0.1087    0.0000 C   0  0  0  0  0  0  0  0  0  0  0  0
    7.3402    1.9604    0.0000 C   0  0  0  0  0  0  0  0  0  0  0  0
    6.2524   -1.3874    0.0000 C   0  0  0  0  0  0  0  0  0  0  0  0
    8.2204   -1.0868    0.0000 C   0  0  0  0  0  0  0  0  0  0  0  0
    8.7556    0.5604    0.0000 C   0  0  0  0  0  0  0  0  0  0  0  0
    5.3864   -1.8874    0.0000 C   0  0  0  0  0  0  0  0  0  0  0  0
    7.1184   -1.8874    0.0000 C   0  0  0  0  0  0  0  0  0  0  0  0
    9.1714   -1.3958    0.0000 C   0  0  0  0  0  0  0  0  0  0  0  0
    9.7067    0.2514    0.0000 C   0  0  0  0  0  0  0  0  0  0  0  0
    5.3864   -2.8874    0.0000 C   0  0  0  0  0  0  0  0  0  0  0  0
    7.1184   -2.8874    0.0000 C   0  0  0  0  0  0  0  0  0  0  0  0
    9.9146   -0.7267    0.0000 C   0  0  0  0  0  0  0  0  0  0  0  0
    6.2524   -3.3874    0.0000 C   0  0  0  0  0  0  0  0  0  0  0  0
    2.4500    4.9014    0.0000 H   0  0  0  0  0  0  0  0  0  0  0  0
    1.8052    4.4329    0.0000 H   0  0  0  0  0  0  0  0  0  0  0  0
    1.4860    3.7161    0.0000 H   0  0  0  0  0  0  0  0  0  0  0  0
    1.5693    2.9234    0.0000 H   0  0  0  0  0  0  0  0  0  0  0  0
    3.9585    4.6592    0.0000 H   0  0  0  0  0  0  0  0  0  0  0  0
    3.2304    4.9834    0.0000 H   0  0  0  0  0  0  0  0  0  0  0  0
    2.0305    2.2886    0.0000 H   0  0  0  0  0  0  0  0  0  0  0  0
    2.7587    1.9644    0.0000 H   0  0  0  0  0  0  0  0  0  0  0  0
    4.5030    3.2317    0.0000 H   0  0  0  0  0  0  0  0  0  0  0  0
    4.4197    4.0244    0.0000 H   0  0  0  0  0  0  0  0  0  0  0  0
    3.9179    1.2895    0.0000 H   0  0  0  0  0  0  0  0  0  0  0  0
    7.8418    1.5960    0.0000 H   0  0  0  0  0  0  0  0  0  0  0  0
    7.7046    2.4620    0.0000 H   0  0  0  0  0  0  0  0  0  0  0  0
    6.8386    2.3248    0.0000 H   0  0  0  0  0  0  0  0  0  0  0  0
    7.7596   -1.5017    0.0000 H   0  0  0  0  0  0  0  0  0  0  0  0
    8.6267    1.1669    0.0000 H   0  0  0  0  0  0  0  0  0  0  0  0
    7.6554   -1.5774    0.0000 H   0  0  0  0  0  0  0  0  0  0  0  0
    9.3004   -2.0023    0.0000 H   0  0  0  0  0  0  0  0  0  0  0  0
   10.1674    0.6663    0.0000 H   0  0  0  0  0  0  0  0  0  0  0  0
    4.8494   -3.1974    0.0000 H   0  0  0  0  0  0  0  0  0  0  0  0
    7.6554   -3.1974    0.0000 H   0  0  0  0  0  0  0  0  0  0  0  0
  1 23  1  0  0  0  0 
  2 29  1  0  0  0  0 
  3 30  1  0  0  0  0 
  4 14  2  0  0  0  0 
  5  6  1  0  0  0  0 
  5 12  1  0  0  0  0 
  5 13  1  0  0  0  0 
  6 14  1  0  0  0  0 
  6 41  1  0  0  0  0 
  7  8  1  0  0  0  0 
  7 17  1  0  0  0  0 
  7 20  1  0  0  0  0 
  8 15  2  0  0  0  0 
  9 10  1  0  0  0  0 
  9 11  1  0  0  0  0 
  9 31  1  0  0  0  0 
  9 32  1  0  0  0  0 
 10 12  1  0  0  0  0 
 10 35  1  0  0  0  0 
 10 36  1  0  0  0  0 
 11 13  1  0  0  0  0 
 11 33  1  0  0  0  0 
 11 34  1  0  0  0  0 
 12 39  1  0  0  0  0 
 12 40  1  0  0  0  0 
 13 37  1  0  0  0  0 
 13 38  1  0  0  0  0 
 14 15  1  0  0  0  0 
 15 16  1  0  0  0  0 
 16 17  2  0  0  0  0 
 16 19  1  0  0  0  0 
 17 18  1  0  0  0  0 
 18 21  2  0  0  0  0 
 18 22  1  0  0  0  0 
 19 42  1  0  0  0  0 
 19 43  1  0  0  0  0 
 19 44  1  0  0  0  0 
 20 23  2  0  0  0  0 
 20 24  1  0  0  0  0 
 21 25  1  0  0  0  0 
 21 45  1  0  0  0  0 
 22 26  2  0  0  0  0 
 22 46  1  0  0  0  0 
 23 27  1  0  0  0  0 
 24 28  2  0  0  0  0 
 24 47  1  0  0  0  0 
 25 29  2  0  0  0  0 
 25 48  1  0  0  0  0 
 26 29  1  0  0  0  0 
 26 49  1  0  0  0  0 
 27 30  2  0  0  0  0 
 27 50  1  0  0  0  0 
 28 30  1  0  0  0  0 
 28 51  1  0  0  0  0 
M  END
> <cdk:Title>
104850

> <cdk:Remark>
null

> <PUBCHEM_COMPOUND_CID>
104850

> <PUBCHEM_COMPOUND_CANONICALIZED>
1

> <PUBCHEM_CACTVS_COMPLEXITY>
583

> <PUBCHEM_CACTVS_HBOND_ACCEPTOR>
3

> <PUBCHEM_CACTVS_HBOND_DONOR>
1

> <PUBCHEM_CACTVS_ROTATABLE_BOND>
4

> <PUBCHEM_CACTVS_SUBSKEYS>
AAADceB7oAAGAAAAAAAAAAAAAAAAAWAAAAA8YIAAAAAAAAAB0AAAHgIYAAAADArBniQywJJqAACqAyVyVACSBCAnBwAauCGoZtgIYPLB19HEpQhgiADIyQcciMCOBABAAACAABAIAIAAAQAAIAAAAAAAAA==

> <PUBCHEM_IUPAC_OPENEYE_NAME>
5-(4-chlorophenyl)-1-(2,4-dichlorophenyl)-4-methyl-N-(1-piperidyl)pyrazole-3-carboxamide

> <PUBCHEM_IUPAC_CAS_NAME>
5-(4-chlorophenyl)-1-(2,4-dichlorophenyl)-4-methyl-N-(1-piperidinyl)-3-pyrazolecarboxamide

> <PUBCHEM_IUPAC_NAME>
5-(4-chlorophenyl)-1-(2,4-dichlorophenyl)-4-methyl-N-piperidin-1-ylpyrazole-3-carboxamide

> <PUBCHEM_IUPAC_SYSTEMATIC_NAME>
5-(4-chlorophenyl)-1-(2,4-dichlorophenyl)-4-methyl-N-piperidin-1-yl-pyrazole-3-carboxamide

> <PUBCHEM_IUPAC_TRADITIONAL_NAME>
5-(4-chlorophenyl)-1-(2,4-dichlorophenyl)-4-methyl-N-piperidino-pyrazole-3-carboxamide

> <PUBCHEM_IUPAC_INCHI>
InChI=1S/C22H21Cl3N4O/c1-14-20(22(30)27-28-11-3-2-4-12-28)26-29(19-10-9-17(24)13-18(19)25)21(14)15-5-7-16(23)8-6-15/h5-10,13H,2-4,11-12H2,1H3,(H,27,30)

> <PUBCHEM_IUPAC_INCHIKEY>
JZCPYUJPEARBJL-UHFFFAOYSA-N

> <PUBCHEM_XLOGP3_AA>
6.5

> <PUBCHEM_EXACT_MASS>
462.078094

> <PUBCHEM_MOLECULAR_FORMULA>
C22H21Cl3N4O

> <PUBCHEM_MOLECULAR_WEIGHT>
463.78734

> <PUBCHEM_OPENEYE_CAN_SMILES>
CC1=C(N(N=C1C(=O)NN2CCCCC2)C3=C(C=C(C=C3)Cl)Cl)C4=CC=C(C=C4)Cl

> <PUBCHEM_OPENEYE_ISO_SMILES>
CC1=C(N(N=C1C(=O)NN2CCCCC2)C3=C(C=C(C=C3)Cl)Cl)C4=CC=C(C=C4)Cl

> <PUBCHEM_CACTVS_TPSA>
50.2

> <PUBCHEM_MONOISOTOPIC_WEIGHT>
462.078094

> <PUBCHEM_TOTAL_CHARGE>
0

> <PUBCHEM_HEAVY_ATOM_COUNT>
30

> <PUBCHEM_ATOM_DEF_STEREO_COUNT>
0

> <PUBCHEM_ATOM_UDEF_STEREO_COUNT>
0

> <PUBCHEM_BOND_DEF_STEREO_COUNT>
0

> <PUBCHEM_BOND_UDEF_STEREO_COUNT>
0

> <PUBCHEM_ISOTOPIC_ATOM_COUNT>
0

> <PUBCHEM_COMPONENT_COUNT>
1

> <PUBCHEM_CACTVS_TAUTO_COUNT>
2

> <PUBCHEM_COORDINATE_TYPE>
1
5
255

> <PUBCHEM_BONDANNOTATIONS>
15  16  8
16  17  8
18  21  8
18  22  8
20  23  8
20  24  8
21  25  8
22  26  8
23  27  8
24  28  8
25  29  8
26  29  8
27  30  8
28  30  8
7  17  8
7  8  8
8  15  8

> <DRUG_ID>
w72

> <DRUG_NAME>
Rimonabant

$$$$
70693507
  CDK     0927151942
null
 63 66  0  0  0  0  0  0  0  0999 V2000
    7.1640    1.8387    0.0000 O   0  0  0  0  0  0  0  0  0  0  0  0
    8.8744    1.9027    0.0000 O   0  0  0  0  0  0  0  0  0  0  0  0
    8.3252    3.1238    0.0000 O   0  0  0  0  0  0  0  0  0  0  0  0
    6.5251   -0.4176    0.0000 C   0  0  3  0  0  0  0  0  0  0  0  0
    6.5251    0.5824    0.0000 C   0  0  1  0  0  0  0  0  0  0  0  0
    5.6591   -0.9176    0.0000 C   0  0  1  0  0  0  0  0  0  0  0  0
    4.7931   -0.4176    0.0000 C   0  0  1  0  0  0  0  0  0  0  0  0
    3.8831   -0.9245    0.0000 C   0  0  2  0  0  0  0  0  0  0  0  0
    7.4714    0.8871    0.0000 C   0  0  1  0  0  0  0  0  0  0  0  0
    5.6591    1.0824    0.0000 C   0  0  0  0  0  0  0  0  0  0  0  0
    4.7931    0.5824    0.0000 C   0  0  0  0  0  0  0  0  0  0  0  0
    7.4714   -0.7224    0.0000 C   0  0  0  0  0  0  0  0  0  0  0  0
    5.6752   -1.9591    0.0000 C   0  0  0  0  0  0  0  0  0  0  0  0
    8.0550    0.0824    0.0000 C   0  0  0  0  0  0  0  0  0  0  0  0
    4.7771   -2.4869    0.0000 C   0  0  1  0  0  0  0  0  0  0  0  0
    3.8751   -1.9661    0.0000 C   0  0  0  0  0  0  0  0  0  0  0  0
    6.5251    1.5824    0.0000 C   0  0  0  0  0  0  0  0  0  0  0  0
    2.9562   -0.3604    0.0000 C   0  0  0  0  0  0  0  0  0  0  0  0
    3.8908    0.0755    0.0000 C   0  0  0  0  0  0  0  0  0  0  0  0
    8.4661    0.9899    0.0000 C   0  0  0  0  0  0  0  0  0  0  0  0
    2.0084   -0.8883    0.0000 C   0  0  0  0  0  0  0  0  0  0  0  0
    2.9396   -2.5158    0.0000 C   0  0  0  0  0  0  0  0  0  0  0  0
    4.7810   -3.4869    0.0000 C   0  0  0  0  0  0  0  0  0  0  0  0
    2.0000   -1.9733    0.0000 C   0  0  0  0  0  0  0  0  0  0  0  0
    9.0524    0.1799    0.0000 C   0  0  0  0  0  0  0  0  0  0  0  0
    7.3736    2.8165    0.0000 C   0  0  0  0  0  0  0  0  0  0  0  0
    6.6316    3.4869    0.0000 C   0  0  0  0  0  0  0  0  0  0  0  0
    6.5908   -1.0341    0.0000 H   0  0  0  0  0  0  0  0  0  0  0  0
    6.3985   -1.3370    0.0000 H   0  0  0  0  0  0  0  0  0  0  0  0
    5.5292    0.0074    0.0000 H   0  0  0  0  0  0  0  0  0  0  0  0
    6.0576    1.5573    0.0000 H   0  0  0  0  0  0  0  0  0  0  0  0
    5.2606    1.5573    0.0000 H   0  0  0  0  0  0  0  0  0  0  0  0
    4.5810    1.1650    0.0000 H   0  0  0  0  0  0  0  0  0  0  0  0
    4.1825    0.4747    0.0000 H   0  0  0  0  0  0  0  0  0  0  0  0
    7.2203   -1.2893    0.0000 H   0  0  0  0  0  0  0  0  0  0  0  0
    8.0087   -1.0316    0.0000 H   0  0  0  0  0  0  0  0  0  0  0  0
    5.8932   -2.5395    0.0000 H   0  0  0  0  0  0  0  0  0  0  0  0
    6.2843   -1.8436    0.0000 H   0  0  0  0  0  0  0  0  0  0  0  0
    8.5158   -0.3324    0.0000 H   0  0  0  0  0  0  0  0  0  0  0  0
    8.5158    0.4971    0.0000 H   0  0  0  0  0  0  0  0  0  0  0  0
    5.3158   -2.7938    0.0000 H   0  0  0  0  0  0  0  0  0  0  0  0
    7.1451    1.5824    0.0000 H   0  0  0  0  0  0  0  0  0  0  0  0
    6.5251    2.2024    0.0000 H   0  0  0  0  0  0  0  0  0  0  0  0
    5.9051    1.5824    0.0000 H   0  0  0  0  0  0  0  0  0  0  0  0
    3.3645    0.1063    0.0000 H   0  0  0  0  0  0  0  0  0  0  0  0
    2.5663    0.1216    0.0000 H   0  0  0  0  0  0  0  0  0  0  0  0
    4.5108    0.0707    0.0000 H   0  0  0  0  0  0  0  0  0  0  0  0
    3.8956    0.6955    0.0000 H   0  0  0  0  0  0  0  0  0  0  0  0
    3.2708    0.0803    0.0000 H   0  0  0  0  0  0  0  0  0  0  0  0
    1.8038   -0.3031    0.0000 H   0  0  0  0  0  0  0  0  0  0  0  0
    1.3967   -0.9897    0.0000 H   0  0  0  0  0  0  0  0  0  0  0  0
    2.9420   -3.1358    0.0000 H   0  0  0  0  0  0  0  0  0  0  0  0
    4.1610   -3.4893    0.0000 H   0  0  0  0  0  0  0  0  0  0  0  0
    4.7834   -4.1069    0.0000 H   0  0  0  0  0  0  0  0  0  0  0  0
    5.4010   -3.4845    0.0000 H   0  0  0  0  0  0  0  0  0  0  0  0
    1.3900   -1.8625    0.0000 H   0  0  0  0  0  0  0  0  0  0  0  0
    1.7864   -2.5554    0.0000 H   0  0  0  0  0  0  0  0  0  0  0  0
    8.5502   -0.1837    0.0000 H   0  0  0  0  0  0  0  0  0  0  0  0
    9.4160   -0.3223    0.0000 H   0  0  0  0  0  0  0  0  0  0  0  0
    9.5547    0.5434    0.0000 H   0  0  0  0  0  0  0  0  0  0  0  0
    7.0473    3.9469    0.0000 H   0  0  0  0  0  0  0  0  0  0  0  0
    6.1716    3.9026    0.0000 H   0  0  0  0  0  0  0  0  0  0  0  0
    6.2160    3.0269    0.0000 H   0  0  0  0  0  0  0  0  0  0  0  0
  9  1  1  6  0  0  0 
  1 26  1  0  0  0  0 
  2 20  2  0  0  0  0 
  3 26  2  0  0  0  0 
  4  5  1  0  0  0  0 
  4  6  1  0  0  0  0 
  4 12  1  0  0  0  0 
  4 28  1  0  0  0  0 
  5  9  1  0  0  0  0 
  5 10  1  0  0  0  0 
  5 17  1  1  0  0  0 
  6  7  1  0  0  0  0 
  6 13  1  0  0  0  0 
  6 29  1  1  0  0  0 
  7  8  1  0  0  0  0 
  7 11  1  0  0  0  0 
  7 30  1  6  0  0  0 
  8 16  1  0  0  0  0 
  8 18  1  0  0  0  0 
  8 19  1  1  0  0  0 
  9 14  1  0  0  0  0 
  9 20  1  0  0  0  0 
 10 11  1  0  0  0  0 
 10 31  1  0  0  0  0 
 10 32  1  0  0  0  0 
 11 33  1  0  0  0  0 
 11 34  1  0  0  0  0 
 12 14  1  0  0  0  0 
 12 35  1  0  0  0  0 
 12 36  1  0  0  0  0 
 13 15  1  0  0  0  0 
 13 37  1  0  0  0  0 
 13 38  1  0  0  0  0 
 14 39  1  0  0  0  0 
 14 40  1  0  0  0  0 
 15 16  1  0  0  0  0 
 15 23  1  6  0  0  0 
 15 41  1  0  0  0  0 
 16 22  2  0  0  0  0 
 17 42  1  0  0  0  0 
 17 43  1  0  0  0  0 
 17 44  1  0  0  0  0 
 18 21  1  0  0  0  0 
 18 45  1  0  0  0  0 
 18 46  1  0  0  0  0 
 19 47  1  0  0  0  0 
 19 48  1  0  0  0  0 
 19 49  1  0  0  0  0 
 20 25  1  0  0  0  0 
 21 24  1  0  0  0  0 
 21 50  1  0  0  0  0 
 21 51  1  0  0  0  0 
 22 24  1  0  0  0  0 
 22 52  1  0  0  0  0 
 23 53  1  0  0  0  0 
 23 54  1  0  0  0  0 
 23 55  1  0  0  0  0 
 24 56  1  0  0  0  0 
 24 57  1  0  0  0  0 
 25 58  1  0  0  0  0 
 25 59  1  0  0  0  0 
 25 60  1  0  0  0  0 
 26 27  1  0  0  0  0 
 27 61  1  0  0  0  0 
 27 62  1  0  0  0  0 
 27 63  1  0  0  0  0 
M  END
> <cdk:Title>
70693507

> <cdk:Remark>
null

> <PUBCHEM_COMPOUND_CID>
70693507

> <PUBCHEM_COMPOUND_CANONICALIZED>
1

> <PUBCHEM_CACTVS_COMPLEXITY>
694

> <PUBCHEM_CACTVS_HBOND_ACCEPTOR>
3

> <PUBCHEM_CACTVS_HBOND_DONOR>
0

> <PUBCHEM_CACTVS_ROTATABLE_BOND>
3

> <PUBCHEM_CACTVS_SUBSKEYS>
AAADcfB4MAAAAAAAAAAAAAAAAAAAAYAAAAAwYIAAAAAAAGDAAAAAGgAAAAAAD0SAgAACCAAABACIAqDSCAIAAAAgAAAACAFAAAgAABIAAQQCAAAEgAAIAAOIyPCPgAAAAAAAAACAAAQAACAAAYAADAAAAA==

> <PUBCHEM_IUPAC_OPENEYE_NAME>
[(6S,8R,9S,10R,13S,17R)-17-acetyl-6,10,13-trimethyl-1,2,3,6,7,8,9,11,12,14,15,16-dodecahydrocyclopenta[a]phenanthren-17-yl] acetate

> <PUBCHEM_IUPAC_CAS_NAME>
acetic acid [(6S,8R,9S,10R,13S,17R)-17-acetyl-6,10,13-trimethyl-1,2,3,6,7,8,9,11,12,14,15,16-dodecahydrocyclopenta[a]phenanthren-17-yl] ester

> <PUBCHEM_IUPAC_NAME>
[(6S,8R,9S,10R,13S,17R)-17-acetyl-6,10,13-trimethyl-1,2,3,6,7,8,9,11,12,14,15,16-dodecahydrocyclopenta[a]phenanthren-17-yl] acetate

> <PUBCHEM_IUPAC_SYSTEMATIC_NAME>
[(6S,8R,9S,10R,13S,17R)-17-ethanoyl-6,10,13-trimethyl-1,2,3,6,7,8,9,11,12,14,15,16-dodecahydrocyclopenta[a]phenanthren-17-yl] ethanoate

> <PUBCHEM_IUPAC_TRADITIONAL_NAME>
acetic acid [(6S,8R,9S,10R,13S,17R)-17-acetyl-6,10,13-trimethyl-1,2,3,6,7,8,9,11,12,14,15,16-dodecahydrocyclopenta[a]phenanthren-17-yl] ester

> <PUBCHEM_IUPAC_INCHI>
InChI=1S/C24H36O3/c1-15-14-18-20(22(4)11-7-6-8-19(15)22)9-12-23(5)21(18)10-13-24(23,16(2)25)27-17(3)26/h8,15,18,20-21H,6-7,9-14H2,1-5H3/t15-,18+,20-,21?,22-,23-,24-/m0/s1

> <PUBCHEM_IUPAC_INCHIKEY>
KDLNOQQQEBKBQM-HDFGVWRLSA-N

> <PUBCHEM_XLOGP3_AA>
5.3

> <PUBCHEM_EXACT_MASS>
372.266445

> <PUBCHEM_MOLECULAR_FORMULA>
C24H36O3

> <PUBCHEM_MOLECULAR_WEIGHT>
372.54084

> <PUBCHEM_OPENEYE_CAN_SMILES>
CC1CC2C(CCC3(C2CCC3(C(=O)C)OC(=O)C)C)C4(C1=CCCC4)C

> <PUBCHEM_OPENEYE_ISO_SMILES>
C[C@H]1C[C@@H]2[C@H](CC[C@]3(C2CC[C@@]3(C(=O)C)OC(=O)C)C)[C@@]4(C1=CCCC4)C

> <PUBCHEM_CACTVS_TPSA>
43.4

> <PUBCHEM_MONOISOTOPIC_WEIGHT>
372.266445

> <PUBCHEM_TOTAL_CHARGE>
0

> <PUBCHEM_HEAVY_ATOM_COUNT>
27

> <PUBCHEM_ATOM_DEF_STEREO_COUNT>
6

> <PUBCHEM_ATOM_UDEF_STEREO_COUNT>
1

> <PUBCHEM_BOND_DEF_STEREO_COUNT>
0

> <PUBCHEM_BOND_UDEF_STEREO_COUNT>
0

> <PUBCHEM_ISOTOPIC_ATOM_COUNT>
0

> <PUBCHEM_COMPONENT_COUNT>
1

> <PUBCHEM_CACTVS_TAUTO_COUNT>
2

> <PUBCHEM_COORDINATE_TYPE>
1
5
255

> <PUBCHEM_BONDANNOTATIONS>
9  1  6
15  23  6
4  12  3
5  17  5
6  29  5
7  30  6
8  19  5

> <DRUG_ID>
w73

> <DRUG_NAME>
Anagestone acetate

$$$$
15004
  CDK     0927151942
null
 51 51  0  0  0  0  0  0  0  0999 V2000
    4.5981    2.0000    0.0000 O   0  0  0  0  0  0  0  0  0  0  0  0
    5.4641   -3.5000    0.0000 O   0  0  0  0  0  0  0  0  0  0  0  0
    2.8660    1.0000    0.0000 O   0  0  0  0  0  0  0  0  0  0  0  0
    4.5981    4.0000    0.0000 O   0  0  0  0  0  0  0  0  0  0  0  0
    6.3301   -2.0000    0.0000 O   0  0  0  0  0  0  0  0  0  0  0  0
    6.3301    4.0000    0.0000 N   0  0  0  0  0  0  0  0  0  0  0  0
    6.3301    5.0000    0.0000 C   0  0  0  0  0  0  0  0  0  0  0  0
    7.1962    3.5000    0.0000 C   0  0  0  0  0  0  0  0  0  0  0  0
    5.4641    3.5000    0.0000 C   0  0  0  0  0  0  0  0  0  0  0  0
    4.5981   -1.0000    0.0000 C   0  0  0  0  0  0  0  0  0  0  0  0
    5.4641    2.5000    0.0000 C   0  0  0  0  0  0  0  0  0  0  0  0
    4.5981    1.0000    0.0000 C   0  0  0  0  0  0  0  0  0  0  0  0
    4.5981   -2.0000    0.0000 C   0  0  0  0  0  0  0  0  0  0  0  0
    3.7320    0.5000    0.0000 C   0  0  0  0  0  0  0  0  0  0  0  0
    3.7320   -0.5000    0.0000 C   0  0  0  0  0  0  0  0  0  0  0  0
    7.1962    5.5000    0.0000 C   0  0  0  0  0  0  0  0  0  0  0  0
    8.0622    4.0000    0.0000 C   0  0  0  0  0  0  0  0  0  0  0  0
    5.4641   -0.5000    0.0000 C   0  0  0  0  0  0  0  0  0  0  0  0
    5.4641    0.5000    0.0000 C   0  0  0  0  0  0  0  0  0  0  0  0
    5.4641   -2.5000    0.0000 C   0  0  0  0  0  0  0  0  0  0  0  0
    6.3301   -4.0000    0.0000 C   0  0  0  0  0  0  0  0  0  0  0  0
    6.3301   -5.0000    0.0000 C   0  0  0  0  0  0  0  0  0  0  0  0
    7.1962   -5.5000    0.0000 C   0  0  0  0  0  0  0  0  0  0  0  0
    2.0000    0.5000    0.0000 C   0  0  0  0  0  0  0  0  0  0  0  0
    6.1181    5.5826    0.0000 H   0  0  0  0  0  0  0  0  0  0  0  0
    5.7196    4.8923    0.0000 H   0  0  0  0  0  0  0  0  0  0  0  0
    6.7976    3.0250    0.0000 H   0  0  0  0  0  0  0  0  0  0  0  0
    7.5947    3.0250    0.0000 H   0  0  0  0  0  0  0  0  0  0  0  0
    5.6762    1.9174    0.0000 H   0  0  0  0  0  0  0  0  0  0  0  0
    6.0747    2.6077    0.0000 H   0  0  0  0  0  0  0  0  0  0  0  0
    3.9875   -1.8923    0.0000 H   0  0  0  0  0  0  0  0  0  0  0  0
    4.3860   -2.5826    0.0000 H   0  0  0  0  0  0  0  0  0  0  0  0
    3.1951   -0.8100    0.0000 H   0  0  0  0  0  0  0  0  0  0  0  0
    7.5062    4.9631    0.0000 H   0  0  0  0  0  0  0  0  0  0  0  0
    7.7331    5.8100    0.0000 H   0  0  0  0  0  0  0  0  0  0  0  0
    6.8862    6.0369    0.0000 H   0  0  0  0  0  0  0  0  0  0  0  0
    8.3722    3.4631    0.0000 H   0  0  0  0  0  0  0  0  0  0  0  0
    8.5991    4.3100    0.0000 H   0  0  0  0  0  0  0  0  0  0  0  0
    7.7522    4.5369    0.0000 H   0  0  0  0  0  0  0  0  0  0  0  0
    6.0010   -0.8100    0.0000 H   0  0  0  0  0  0  0  0  0  0  0  0
    6.0010    0.8100    0.0000 H   0  0  0  0  0  0  0  0  0  0  0  0
    6.9407   -4.1077    0.0000 H   0  0  0  0  0  0  0  0  0  0  0  0
    6.5422   -3.4174    0.0000 H   0  0  0  0  0  0  0  0  0  0  0  0
    5.7196   -4.8923    0.0000 H   0  0  0  0  0  0  0  0  0  0  0  0
    6.1181   -5.5826    0.0000 H   0  0  0  0  0  0  0  0  0  0  0  0
    6.8862   -6.0369    0.0000 H   0  0  0  0  0  0  0  0  0  0  0  0
    7.7331   -5.8100    0.0000 H   0  0  0  0  0  0  0  0  0  0  0  0
    7.5062   -4.9631    0.0000 H   0  0  0  0  0  0  0  0  0  0  0  0
    1.6900    1.0369    0.0000 H   0  0  0  0  0  0  0  0  0  0  0  0
    1.4631    0.1900    0.0000 H   0  0  0  0  0  0  0  0  0  0  0  0
    2.3100   -0.0369    0.0000 H   0  0  0  0  0  0  0  0  0  0  0  0
  1 11  1  0  0  0  0 
  1 12  1  0  0  0  0 
  2 20  1  0  0  0  0 
  2 21  1  0  0  0  0 
  3 14  1  0  0  0  0 
  3 24  1  0  0  0  0 
  4  9  2  0  0  0  0 
  5 20  2  0  0  0  0 
  6  7  1  0  0  0  0 
  6  8  1  0  0  0  0 
  6  9  1  0  0  0  0 
  7 16  1  0  0  0  0 
  7 25  1  0  0  0  0 
  7 26  1  0  0  0  0 
  8 17  1  0  0  0  0 
  8 27  1  0  0  0  0 
  8 28  1  0  0  0  0 
  9 11  1  0  0  0  0 
 10 13  1  0  0  0  0 
 10 15  2  0  0  0  0 
 10 18  1  0  0  0  0 
 11 29  1  0  0  0  0 
 11 30  1  0  0  0  0 
 12 14  2  0  0  0  0 
 12 19  1  0  0  0  0 
 13 20  1  0  0  0  0 
 13 31  1  0  0  0  0 
 13 32  1  0  0  0  0 
 14 15  1  0  0  0  0 
 15 33  1  0  0  0  0 
 16 34  1  0  0  0  0 
 16 35  1  0  0  0  0 
 16 36  1  0  0  0  0 
 17 37  1  0  0  0  0 
 17 38  1  0  0  0  0 
 17 39  1  0  0  0  0 
 18 19  2  0  0  0  0 
 18 40  1  0  0  0  0 
 19 41  1  0  0  0  0 
 21 22  1  0  0  0  0 
 21 42  1  0  0  0  0 
 21 43  1  0  0  0  0 
 22 23  1  0  0  0  0 
 22 44  1  0  0  0  0 
 22 45  1  0  0  0  0 
 23 46  1  0  0  0  0 
 23 47  1  0  0  0  0 
 23 48  1  0  0  0  0 
 24 49  1  0  0  0  0 
 24 50  1  0  0  0  0 
 24 51  1  0  0  0  0 
M  END
> <cdk:Title>
15004

> <cdk:Remark>
null

> <PUBCHEM_COMPOUND_CID>
15004

> <PUBCHEM_COMPOUND_CANONICALIZED>
1

> <PUBCHEM_CACTVS_COMPLEXITY>
384

> <PUBCHEM_CACTVS_HBOND_ACCEPTOR>
5

> <PUBCHEM_CACTVS_HBOND_DONOR>
0

> <PUBCHEM_CACTVS_ROTATABLE_BOND>
11

> <PUBCHEM_CACTVS_SUBSKEYS>
AAADceB6OAAAAAAAAAAAAAAAAAAAAAAAAAAwAAAAAAAAAAABAAAAHgAAAAAADAThmAYyDoMABACIAiHSGAICCAAgIAAIiAFOiIgPJjKENR6DOCKkxhGaqAeI7LzOIAABAAAAQABAAAIAAACAAAAAAAAAAA==

> <PUBCHEM_IUPAC_OPENEYE_NAME>
propyl 2-[4-[2-(diethylamino)-2-oxo-ethoxy]-3-methoxy-phenyl]acetate

> <PUBCHEM_IUPAC_CAS_NAME>
2-[4-[2-(diethylamino)-2-oxoethoxy]-3-methoxyphenyl]acetic acid propyl ester

> <PUBCHEM_IUPAC_NAME>
propyl 2-[4-[2-(diethylamino)-2-oxoethoxy]-3-methoxyphenyl]acetate

> <PUBCHEM_IUPAC_SYSTEMATIC_NAME>
propyl 2-[4-[2-(diethylamino)-2-oxidanylidene-ethoxy]-3-methoxy-phenyl]ethanoate

> <PUBCHEM_IUPAC_TRADITIONAL_NAME>
2-[4-[2-(diethylamino)-2-keto-ethoxy]-3-methoxy-phenyl]acetic acid propyl ester

> <PUBCHEM_IUPAC_INCHI>
InChI=1S/C18H27NO5/c1-5-10-23-18(21)12-14-8-9-15(16(11-14)22-4)24-13-17(20)19(6-2)7-3/h8-9,11H,5-7,10,12-13H2,1-4H3

> <PUBCHEM_IUPAC_INCHIKEY>
KEJXLQUPYHWCNM-UHFFFAOYSA-N

> <PUBCHEM_XLOGP3_AA>
2.8

> <PUBCHEM_EXACT_MASS>
337.188923

> <PUBCHEM_MOLECULAR_FORMULA>
C18H27NO5

> <PUBCHEM_MOLECULAR_WEIGHT>
337.41068

> <PUBCHEM_OPENEYE_CAN_SMILES>
CCCOC(=O)CC1=CC(=C(C=C1)OCC(=O)N(CC)CC)OC

> <PUBCHEM_OPENEYE_ISO_SMILES>
CCCOC(=O)CC1=CC(=C(C=C1)OCC(=O)N(CC)CC)OC

> <PUBCHEM_CACTVS_TPSA>
65.1

> <PUBCHEM_MONOISOTOPIC_WEIGHT>
337.188923

> <PUBCHEM_TOTAL_CHARGE>
0

> <PUBCHEM_HEAVY_ATOM_COUNT>
24

> <PUBCHEM_ATOM_DEF_STEREO_COUNT>
0

> <PUBCHEM_ATOM_UDEF_STEREO_COUNT>
0

> <PUBCHEM_BOND_DEF_STEREO_COUNT>
0

> <PUBCHEM_BOND_UDEF_STEREO_COUNT>
0

> <PUBCHEM_ISOTOPIC_ATOM_COUNT>
0

> <PUBCHEM_COMPONENT_COUNT>
1

> <PUBCHEM_CACTVS_TAUTO_COUNT>
1

> <PUBCHEM_COORDINATE_TYPE>
1
5
255

> <PUBCHEM_BONDANNOTATIONS>
10  15  8
10  18  8
12  14  8
12  19  8
14  15  8
18  19  8

> <DRUG_ID>
w74

> <DRUG_NAME>
Propanidid

$$$$
7628
  CDK     0927151942
null
  7  6  0  0  0  0  0  0  0  0999 V2000
    4.2690    0.9050    0.0000 O   0  0  0  0  0  0  0  0  0  0  0  0
    2.5369    0.9050    0.0000 O   0  0  0  0  0  0  0  0  0  0  0  0
    3.4030   -0.5950    0.0000 O   0  0  0  0  0  0  0  0  0  0  0  0
    3.4030    0.4050    0.0000 B   0  0  0  0  0  0  0  0  0  0  0  0
    4.8059    0.5950    0.0000 H   0  0  0  0  0  0  0  0  0  0  0  0
    2.0000    0.5950    0.0000 H   0  0  0  0  0  0  0  0  0  0  0  0
    2.8660   -0.9050    0.0000 H   0  0  0  0  0  0  0  0  0  0  0  0
  1  4  1  0  0  0  0 
  1  5  1  0  0  0  0 
  2  4  1  0  0  0  0 
  2  6  1  0  0  0  0 
  3  4  1  0  0  0  0 
  3  7  1  0  0  0  0 
M  END
> <cdk:Title>
7628

> <cdk:Remark>
null

> <PUBCHEM_COMPOUND_CID>
7628

> <PUBCHEM_COMPOUND_CANONICALIZED>
1

> <PUBCHEM_CACTVS_COMPLEXITY>
8

> <PUBCHEM_CACTVS_HBOND_ACCEPTOR>
3

> <PUBCHEM_CACTVS_HBOND_DONOR>
3

> <PUBCHEM_CACTVS_ROTATABLE_BOND>
0

> <PUBCHEM_CACTVS_SUBSKEYS>
AAADcQIAMAAAAAAAAAAAAAAAAAAAAAAAAAAAAAAAAAAAAAAAAAAIAAAACAAAAAAAAAAAAAAAAAAAAAAAAAAAAAAAAAAAAAAAAAAAAAAAAAAAAAAAAAAAAAAAAAAAAAAAAAAAAAAAAAAAAAAAAAAAAAAAAA==

> <PUBCHEM_IUPAC_OPENEYE_NAME>
boric acid

> <PUBCHEM_IUPAC_CAS_NAME>
boric acid

> <PUBCHEM_IUPAC_NAME>
boric acid

> <PUBCHEM_IUPAC_SYSTEMATIC_NAME>
boric acid

> <PUBCHEM_IUPAC_TRADITIONAL_NAME>
boric acid

> <PUBCHEM_IUPAC_INCHI>
InChI=1S/BH3O3/c2-1(3)4/h2-4H

> <PUBCHEM_IUPAC_INCHIKEY>
KGBXLFKZBHKPEV-UHFFFAOYSA-N

> <PUBCHEM_EXACT_MASS>
62.017524

> <PUBCHEM_MOLECULAR_FORMULA>
BH3O3

> <PUBCHEM_MOLECULAR_WEIGHT>
61.83302

> <PUBCHEM_OPENEYE_CAN_SMILES>
B(O)(O)O

> <PUBCHEM_OPENEYE_ISO_SMILES>
B(O)(O)O

> <PUBCHEM_CACTVS_TPSA>
60.7

> <PUBCHEM_MONOISOTOPIC_WEIGHT>
62.017524

> <PUBCHEM_TOTAL_CHARGE>
0

> <PUBCHEM_HEAVY_ATOM_COUNT>
4

> <PUBCHEM_ATOM_DEF_STEREO_COUNT>
0

> <PUBCHEM_ATOM_UDEF_STEREO_COUNT>
0

> <PUBCHEM_BOND_DEF_STEREO_COUNT>
0

> <PUBCHEM_BOND_UDEF_STEREO_COUNT>
0

> <PUBCHEM_ISOTOPIC_ATOM_COUNT>
0

> <PUBCHEM_COMPONENT_COUNT>
1

> <PUBCHEM_CACTVS_TAUTO_COUNT>
1

> <PUBCHEM_COORDINATE_TYPE>
1
5
255

> <DRUG_ID>
w75

> <DRUG_NAME>
Boric acid

$$$$
151166
  CDK     0927151942
null
 33 34  0  0  0  0  0  0  0  0999 V2000
    6.0010    3.0000    0.0000 Cl  0  0  0  0  0  0  0  0  0  0  0  0
    7.7331    0.0000    0.0000 F   0  0  0  0  0  0  0  0  0  0  0  0
    2.5369    0.0000    0.0000 O   0  0  0  0  0  0  0  0  0  0  0  0
    3.4030   -1.5000    0.0000 O   0  0  0  0  0  0  0  0  0  0  0  0
    6.0010    1.0000    0.0000 N   0  0  0  0  0  0  0  0  0  0  0  0
    5.1350   -0.5000    0.0000 C   0  0  0  0  0  0  0  0  0  0  0  0
    6.0010    0.0000    0.0000 C   0  0  0  0  0  0  0  0  0  0  0  0
    5.1350   -1.5000    0.0000 C   0  0  0  0  0  0  0  0  0  0  0  0
    6.0010   -2.0000    0.0000 C   0  0  0  0  0  0  0  0  0  0  0  0
    4.2690    0.0000    0.0000 C   0  0  0  0  0  0  0  0  0  0  0  0
    6.8671   -0.5000    0.0000 C   0  0  0  0  0  0  0  0  0  0  0  0
    6.8671   -1.5000    0.0000 C   0  0  0  0  0  0  0  0  0  0  0  0
    6.8671    1.5000    0.0000 C   0  0  0  0  0  0  0  0  0  0  0  0
    6.0010   -3.0000    0.0000 C   0  0  0  0  0  0  0  0  0  0  0  0
    6.8671    2.5000    0.0000 C   0  0  0  0  0  0  0  0  0  0  0  0
    7.7331    1.0000    0.0000 C   0  0  0  0  0  0  0  0  0  0  0  0
    3.4030   -0.5000    0.0000 C   0  0  0  0  0  0  0  0  0  0  0  0
    7.7331    3.0000    0.0000 C   0  0  0  0  0  0  0  0  0  0  0  0
    8.5991    1.5000    0.0000 C   0  0  0  0  0  0  0  0  0  0  0  0
    8.5991    2.5000    0.0000 C   0  0  0  0  0  0  0  0  0  0  0  0
    4.5981   -1.8100    0.0000 H   0  0  0  0  0  0  0  0  0  0  0  0
    4.6675    0.4749    0.0000 H   0  0  0  0  0  0  0  0  0  0  0  0
    3.8705    0.4749    0.0000 H   0  0  0  0  0  0  0  0  0  0  0  0
    7.4040   -0.1900    0.0000 H   0  0  0  0  0  0  0  0  0  0  0  0
    5.4641    1.3100    0.0000 H   0  0  0  0  0  0  0  0  0  0  0  0
    7.4040   -1.8100    0.0000 H   0  0  0  0  0  0  0  0  0  0  0  0
    5.3810   -3.0000    0.0000 H   0  0  0  0  0  0  0  0  0  0  0  0
    6.0010   -3.6200    0.0000 H   0  0  0  0  0  0  0  0  0  0  0  0
    6.6210   -3.0000    0.0000 H   0  0  0  0  0  0  0  0  0  0  0  0
    7.7331    3.6200    0.0000 H   0  0  0  0  0  0  0  0  0  0  0  0
    9.1360    1.1900    0.0000 H   0  0  0  0  0  0  0  0  0  0  0  0
    9.1360    2.8100    0.0000 H   0  0  0  0  0  0  0  0  0  0  0  0
    2.0000   -0.3100    0.0000 H   0  0  0  0  0  0  0  0  0  0  0  0
  1 15  1  0  0  0  0 
  2 16  1  0  0  0  0 
  3 17  1  0  0  0  0 
  3 33  1  0  0  0  0 
  4 17  2  0  0  0  0 
  5  7  1  0  0  0  0 
  5 13  1  0  0  0  0 
  5 25  1  0  0  0  0 
  6  7  2  0  0  0  0 
  6  8  1  0  0  0  0 
  6 10  1  0  0  0  0 
  7 11  1  0  0  0  0 
  8  9  2  0  0  0  0 
  8 21  1  0  0  0  0 
  9 12  1  0  0  0  0 
  9 14  1  0  0  0  0 
 10 17  1  0  0  0  0 
 10 22  1  0  0  0  0 
 10 23  1  0  0  0  0 
 11 12  2  0  0  0  0 
 11 24  1  0  0  0  0 
 12 26  1  0  0  0  0 
 13 15  1  0  0  0  0 
 13 16  2  0  0  0  0 
 14 27  1  0  0  0  0 
 14 28  1  0  0  0  0 
 14 29  1  0  0  0  0 
 15 18  2  0  0  0  0 
 16 19  1  0  0  0  0 
 18 20  1  0  0  0  0 
 18 30  1  0  0  0  0 
 19 20  2  0  0  0  0 
 19 31  1  0  0  0  0 
 20 32  1  0  0  0  0 
M  END
> <cdk:Title>
151166

> <cdk:Remark>
null

> <PUBCHEM_COMPOUND_CID>
151166

> <PUBCHEM_COMPOUND_CANONICALIZED>
1

> <PUBCHEM_CACTVS_COMPLEXITY>
342

> <PUBCHEM_CACTVS_HBOND_ACCEPTOR>
4

> <PUBCHEM_CACTVS_HBOND_DONOR>
2

> <PUBCHEM_CACTVS_ROTATABLE_BOND>
4

> <PUBCHEM_CACTVS_SUBSKEYS>
AAADccByMQAEAAAAAAAAAAAAAAAAAAAAAAAwYAAAAAAAAAABQAAAHwIQCAAADAqBmCgyyILAAgCIAiTSSACCAAAhBwAIiAEAZogIIHLBl5HEYAhk0AHIyAe8yPCOCAACAAACABAQAAQAAAQAIAAAAAAAAA==

> <PUBCHEM_IUPAC_OPENEYE_NAME>
2-[2-(2-chloro-6-fluoro-anilino)-5-methyl-phenyl]acetic acid

> <PUBCHEM_IUPAC_CAS_NAME>
2-[2-(2-chloro-6-fluoroanilino)-5-methylphenyl]acetic acid

> <PUBCHEM_IUPAC_NAME>
2-[2-(2-chloro-6-fluoroanilino)-5-methylphenyl]acetic acid

> <PUBCHEM_IUPAC_SYSTEMATIC_NAME>
2-[2-[(2-chloranyl-6-fluoranyl-phenyl)amino]-5-methyl-phenyl]ethanoic acid

> <PUBCHEM_IUPAC_TRADITIONAL_NAME>
2-[2-(2-chloro-6-fluoro-anilino)-5-methyl-phenyl]acetic acid

> <PUBCHEM_IUPAC_INCHI>
InChI=1S/C15H13ClFNO2/c1-9-5-6-13(10(7-9)8-14(19)20)18-15-11(16)3-2-4-12(15)17/h2-7,18H,8H2,1H3,(H,19,20)

> <PUBCHEM_IUPAC_INCHIKEY>
KHPKQFYUPIUARC-UHFFFAOYSA-N

> <PUBCHEM_XLOGP3>
4.2

> <PUBCHEM_EXACT_MASS>
293.061885

> <PUBCHEM_MOLECULAR_FORMULA>
C15H13ClFNO2

> <PUBCHEM_MOLECULAR_WEIGHT>
293.720623

> <PUBCHEM_OPENEYE_CAN_SMILES>
CC1=CC(=C(C=C1)NC2=C(C=CC=C2Cl)F)CC(=O)O

> <PUBCHEM_OPENEYE_ISO_SMILES>
CC1=CC(=C(C=C1)NC2=C(C=CC=C2Cl)F)CC(=O)O

> <PUBCHEM_CACTVS_TPSA>
49.3

> <PUBCHEM_MONOISOTOPIC_WEIGHT>
293.061885

> <PUBCHEM_TOTAL_CHARGE>
0

> <PUBCHEM_HEAVY_ATOM_COUNT>
20

> <PUBCHEM_ATOM_DEF_STEREO_COUNT>
0

> <PUBCHEM_ATOM_UDEF_STEREO_COUNT>
0

> <PUBCHEM_BOND_DEF_STEREO_COUNT>
0

> <PUBCHEM_BOND_UDEF_STEREO_COUNT>
0

> <PUBCHEM_ISOTOPIC_ATOM_COUNT>
0

> <PUBCHEM_COMPONENT_COUNT>
1

> <PUBCHEM_CACTVS_TAUTO_COUNT>
37

> <PUBCHEM_COORDINATE_TYPE>
1
5
255

> <PUBCHEM_BONDANNOTATIONS>
11  12  8
13  15  8
13  16  8
15  18  8
16  19  8
18  20  8
19  20  8
6  7  8
6  8  8
7  11  8
8  9  8
9  12  8

> <DRUG_ID>
w76

> <DRUG_NAME>
Lumiracoxib

$$$$
4764
  CDK     0927151942
null
 38 41  0  0  0  0  0  0  0  0999 V2000
    5.2619   -1.4929    0.0000 O   0  0  0  0  0  0  0  0  0  0  0  0
    4.9889   -3.2482    0.0000 O   0  0  0  0  0  0  0  0  0  0  0  0
    3.4488    3.1182    0.0000 O   0  0  0  0  0  0  0  0  0  0  0  0
    8.6571   -0.2769    0.0000 O   0  0  0  0  0  0  0  0  0  0  0  0
    4.6783   -0.6882    0.0000 C   0  0  0  0  0  0  0  0  0  0  0  0
    3.7320   -0.9929    0.0000 C   0  0  0  0  0  0  0  0  0  0  0  0
    5.6730   -0.5854    0.0000 C   0  0  0  0  0  0  0  0  0  0  0  0
    4.3709    0.2634    0.0000 C   0  0  0  0  0  0  0  0  0  0  0  0
    3.7320   -1.9929    0.0000 C   0  0  0  0  0  0  0  0  0  0  0  0
    4.6783   -2.2976    0.0000 C   0  0  0  0  0  0  0  0  0  0  0  0
    2.8660   -0.4929    0.0000 C   0  0  0  0  0  0  0  0  0  0  0  0
    3.3931    0.4730    0.0000 C   0  0  0  0  0  0  0  0  0  0  0  0
    6.2594   -1.3954    0.0000 C   0  0  0  0  0  0  0  0  0  0  0  0
    5.0413    1.0054    0.0000 C   0  0  0  0  0  0  0  0  0  0  0  0
    6.0813    0.3275    0.0000 C   0  0  0  0  0  0  0  0  0  0  0  0
    2.8660   -2.4929    0.0000 C   0  0  0  0  0  0  0  0  0  0  0  0
    2.0000   -0.9929    0.0000 C   0  0  0  0  0  0  0  0  0  0  0  0
    2.0000   -1.9929    0.0000 C   0  0  0  0  0  0  0  0  0  0  0  0
    7.2541   -1.2926    0.0000 C   0  0  0  0  0  0  0  0  0  0  0  0
    3.0857    1.4246    0.0000 C   0  0  0  0  0  0  0  0  0  0  0  0
    7.0760    0.4303    0.0000 C   0  0  0  0  0  0  0  0  0  0  0  0
    4.7339    1.9570    0.0000 C   0  0  0  0  0  0  0  0  0  0  0  0
    7.6624   -0.3797    0.0000 C   0  0  0  0  0  0  0  0  0  0  0  0
    3.7562    2.1666    0.0000 C   0  0  0  0  0  0  0  0  0  0  0  0
    2.8660    0.1271    0.0000 H   0  0  0  0  0  0  0  0  0  0  0  0
    6.0062   -1.9614    0.0000 H   0  0  0  0  0  0  0  0  0  0  0  0
    2.9775    0.0130    0.0000 H   0  0  0  0  0  0  0  0  0  0  0  0
    5.7177    0.8297    0.0000 H   0  0  0  0  0  0  0  0  0  0  0  0
    5.6475    0.8755    0.0000 H   0  0  0  0  0  0  0  0  0  0  0  0
    2.8660   -3.1129    0.0000 H   0  0  0  0  0  0  0  0  0  0  0  0
    1.4631   -0.6829    0.0000 H   0  0  0  0  0  0  0  0  0  0  0  0
    1.4631   -2.3029    0.0000 H   0  0  0  0  0  0  0  0  0  0  0  0
    7.6176   -1.7948    0.0000 H   0  0  0  0  0  0  0  0  0  0  0  0
    2.4795    1.5546    0.0000 H   0  0  0  0  0  0  0  0  0  0  0  0
    7.3292    0.9963    0.0000 H   0  0  0  0  0  0  0  0  0  0  0  0
    5.1496    2.4170    0.0000 H   0  0  0  0  0  0  0  0  0  0  0  0
    9.0206   -0.7792    0.0000 H   0  0  0  0  0  0  0  0  0  0  0  0
    2.8426    3.2482    0.0000 H   0  0  0  0  0  0  0  0  0  0  0  0
  1  5  1  0  0  0  0 
  1 10  1  0  0  0  0 
  2 10  2  0  0  0  0 
  3 24  1  0  0  0  0 
  3 38  1  0  0  0  0 
  4 23  1  0  0  0  0 
  4 37  1  0  0  0  0 
  5  6  1  0  0  0  0 
  5  7  1  0  0  0  0 
  5  8  1  0  0  0  0 
  6  9  1  0  0  0  0 
  6 11  2  0  0  0  0 
  7 13  2  0  0  0  0 
  7 15  1  0  0  0  0 
  8 12  2  0  0  0  0 
  8 14  1  0  0  0  0 
  9 10  1  0  0  0  0 
  9 16  2  0  0  0  0 
 11 17  1  0  0  0  0 
 11 25  1  0  0  0  0 
 12 20  1  0  0  0  0 
 12 27  1  0  0  0  0 
 13 19  1  0  0  0  0 
 13 26  1  0  0  0  0 
 14 22  2  0  0  0  0 
 14 29  1  0  0  0  0 
 15 21  2  0  0  0  0 
 15 28  1  0  0  0  0 
 16 18  1  0  0  0  0 
 16 30  1  0  0  0  0 
 17 18  2  0  0  0  0 
 17 31  1  0  0  0  0 
 18 32  1  0  0  0  0 
 19 23  2  0  0  0  0 
 19 33  1  0  0  0  0 
 20 24  2  0  0  0  0 
 20 34  1  0  0  0  0 
 21 23  1  0  0  0  0 
 21 35  1  0  0  0  0 
 22 24  1  0  0  0  0 
 22 36  1  0  0  0  0 
M  END
> <cdk:Title>
4764

> <cdk:Remark>
null

> <PUBCHEM_COMPOUND_CID>
4764

> <PUBCHEM_COMPOUND_CANONICALIZED>
1

> <PUBCHEM_CACTVS_COMPLEXITY>
438

> <PUBCHEM_CACTVS_HBOND_ACCEPTOR>
4

> <PUBCHEM_CACTVS_HBOND_DONOR>
2

> <PUBCHEM_CACTVS_ROTATABLE_BOND>
2

> <PUBCHEM_CACTVS_SUBSKEYS>
AAADccB4OAAAAAAAAAAAAAAAAAAAASAAAAAwYMAAAAAAAEgBUAAAGgAACAAADESAmAAwDoAABgCIAiDSCAACAAAkIAAIiAEGCMgIJjKCNRqCcQAkwBEIuYeK6PyOoAAAAAAQAABAAAAAACAAAAAAAAAAAA==

> <PUBCHEM_IUPAC_OPENEYE_NAME>
3,3-bis(4-hydroxyphenyl)isobenzofuran-1-one

> <PUBCHEM_IUPAC_CAS_NAME>
3,3-bis(4-hydroxyphenyl)-1-isobenzofuranone

> <PUBCHEM_IUPAC_NAME>
3,3-bis(4-hydroxyphenyl)-2-benzofuran-1-one

> <PUBCHEM_IUPAC_SYSTEMATIC_NAME>
3,3-bis(4-hydroxyphenyl)-2-benzofuran-1-one

> <PUBCHEM_IUPAC_TRADITIONAL_NAME>
phenolphthalein

> <PUBCHEM_IUPAC_INCHI>
InChI=1S/C20H14O4/c21-15-9-5-13(6-10-15)20(14-7-11-16(22)12-8-14)18-4-2-1-3-17(18)19(23)24-20/h1-12,21-22H

> <PUBCHEM_IUPAC_INCHIKEY>
KJFMBFZCATUALV-UHFFFAOYSA-N

> <PUBCHEM_XLOGP3>
3.6

> <PUBCHEM_EXACT_MASS>
318.089209

> <PUBCHEM_MOLECULAR_FORMULA>
C20H14O4

> <PUBCHEM_MOLECULAR_WEIGHT>
318.32276

> <PUBCHEM_OPENEYE_CAN_SMILES>
C1=CC=C2C(=C1)C(=O)OC2(C3=CC=C(C=C3)O)C4=CC=C(C=C4)O

> <PUBCHEM_OPENEYE_ISO_SMILES>
C1=CC=C2C(=C1)C(=O)OC2(C3=CC=C(C=C3)O)C4=CC=C(C=C4)O

> <PUBCHEM_CACTVS_TPSA>
66.8

> <PUBCHEM_MONOISOTOPIC_WEIGHT>
318.089209

> <PUBCHEM_TOTAL_CHARGE>
0

> <PUBCHEM_HEAVY_ATOM_COUNT>
24

> <PUBCHEM_ATOM_DEF_STEREO_COUNT>
0

> <PUBCHEM_ATOM_UDEF_STEREO_COUNT>
0

> <PUBCHEM_BOND_DEF_STEREO_COUNT>
0

> <PUBCHEM_BOND_UDEF_STEREO_COUNT>
0

> <PUBCHEM_ISOTOPIC_ATOM_COUNT>
0

> <PUBCHEM_COMPONENT_COUNT>
1

> <PUBCHEM_CACTVS_TAUTO_COUNT>
3

> <PUBCHEM_COORDINATE_TYPE>
1
5
255

> <PUBCHEM_BONDANNOTATIONS>
11  17  8
12  20  8
13  19  8
14  22  8
15  21  8
16  18  8
17  18  8
19  23  8
20  24  8
21  23  8
22  24  8
6  11  8
6  9  8
7  13  8
7  15  8
8  12  8
8  14  8
9  16  8

> <DRUG_ID>
w77

> <DRUG_NAME>
Phenolphthalein

$$$$
5452
  CDK     0927151942
null
 51 54  0  0  0  0  0  0  0  0999 V2000
    4.6660   -3.2327    0.0000 S   0  0  0  0  0  0  0  0  0  0  0  0
    8.1962   -1.2085    0.0000 S   0  0  0  0  0  0  0  0  0  0  0  0
    2.9340    1.7673    0.0000 N   0  0  3  0  0  0  0  0  0  0  0  0
    4.6660   -1.2327    0.0000 N   0  0  0  0  0  0  0  0  0  0  0  0
    3.8000    1.2673    0.0000 C   0  0  3  0  0  0  0  0  0  0  0  0
    4.6660    1.7673    0.0000 C   0  0  0  0  0  0  0  0  0  0  0  0
    3.8000    0.2673    0.0000 C   0  0  0  0  0  0  0  0  0  0  0  0
    4.6660    2.7673    0.0000 C   0  0  0  0  0  0  0  0  0  0  0  0
    2.9340    2.7673    0.0000 C   0  0  0  0  0  0  0  0  0  0  0  0
    3.8000    3.2673    0.0000 C   0  0  0  0  0  0  0  0  0  0  0  0
    4.6660   -0.2327    0.0000 C   0  0  0  0  0  0  0  0  0  0  0  0
    2.0680    1.2673    0.0000 C   0  0  0  0  0  0  0  0  0  0  0  0
    5.5321   -1.7327    0.0000 C   0  0  0  0  0  0  0  0  0  0  0  0
    3.8000   -1.7327    0.0000 C   0  0  0  0  0  0  0  0  0  0  0  0
    5.5321   -2.7327    0.0000 C   0  0  0  0  0  0  0  0  0  0  0  0
    3.8000   -2.7327    0.0000 C   0  0  0  0  0  0  0  0  0  0  0  0
    6.4260   -1.1980    0.0000 C   0  0  0  0  0  0  0  0  0  0  0  0
    2.9061   -1.1980    0.0000 C   0  0  0  0  0  0  0  0  0  0  0  0
    6.4260   -3.2673    0.0000 C   0  0  0  0  0  0  0  0  0  0  0  0
    2.9061   -3.2673    0.0000 C   0  0  0  0  0  0  0  0  0  0  0  0
    7.3321   -1.7118    0.0000 C   0  0  0  0  0  0  0  0  0  0  0  0
    2.0000   -1.7118    0.0000 C   0  0  0  0  0  0  0  0  0  0  0  0
    7.3321   -2.7535    0.0000 C   0  0  0  0  0  0  0  0  0  0  0  0
    2.0000   -2.7535    0.0000 C   0  0  0  0  0  0  0  0  0  0  0  0
    9.0641   -1.7052    0.0000 C   0  0  0  0  0  0  0  0  0  0  0  0
    3.2631    0.9573    0.0000 H   0  0  0  0  0  0  0  0  0  0  0  0
    4.8781    1.1847    0.0000 H   0  0  0  0  0  0  0  0  0  0  0  0
    5.2766    1.8750    0.0000 H   0  0  0  0  0  0  0  0  0  0  0  0
    3.1894    0.3750    0.0000 H   0  0  0  0  0  0  0  0  0  0  0  0
    3.5880   -0.3153    0.0000 H   0  0  0  0  0  0  0  0  0  0  0  0
    5.2766    2.6597    0.0000 H   0  0  0  0  0  0  0  0  0  0  0  0
    4.8781    3.3499    0.0000 H   0  0  0  0  0  0  0  0  0  0  0  0
    2.7219    3.3499    0.0000 H   0  0  0  0  0  0  0  0  0  0  0  0
    2.3234    2.6597    0.0000 H   0  0  0  0  0  0  0  0  0  0  0  0
    4.1985    3.7423    0.0000 H   0  0  0  0  0  0  0  0  0  0  0  0
    3.4015    3.7423    0.0000 H   0  0  0  0  0  0  0  0  0  0  0  0
    5.2766   -0.3403    0.0000 H   0  0  0  0  0  0  0  0  0  0  0  0
    4.8781    0.3499    0.0000 H   0  0  0  0  0  0  0  0  0  0  0  0
    1.7580    1.8043    0.0000 H   0  0  0  0  0  0  0  0  0  0  0  0
    1.5310    0.9573    0.0000 H   0  0  0  0  0  0  0  0  0  0  0  0
    2.3780    0.7304    0.0000 H   0  0  0  0  0  0  0  0  0  0  0  0
    6.4188   -0.5780    0.0000 H   0  0  0  0  0  0  0  0  0  0  0  0
    2.9132   -0.5780    0.0000 H   0  0  0  0  0  0  0  0  0  0  0  0
    6.4188   -3.8873    0.0000 H   0  0  0  0  0  0  0  0  0  0  0  0
    2.9132   -3.8873    0.0000 H   0  0  0  0  0  0  0  0  0  0  0  0
    1.4643   -1.3998    0.0000 H   0  0  0  0  0  0  0  0  0  0  0  0
    7.8678   -3.0656    0.0000 H   0  0  0  0  0  0  0  0  0  0  0  0
    1.4643   -3.0656    0.0000 H   0  0  0  0  0  0  0  0  0  0  0  0
    8.7562   -2.2433    0.0000 H   0  0  0  0  0  0  0  0  0  0  0  0
    9.6022   -2.0131    0.0000 H   0  0  0  0  0  0  0  0  0  0  0  0
    9.3720   -1.1670    0.0000 H   0  0  0  0  0  0  0  0  0  0  0  0
  1 15  1  0  0  0  0 
  1 16  1  0  0  0  0 
  2 21  1  0  0  0  0 
  2 25  1  0  0  0  0 
  3  5  1  0  0  0  0 
  3  9  1  0  0  0  0 
  3 12  1  0  0  0  0 
  4 11  1  0  0  0  0 
  4 13  1  0  0  0  0 
  4 14  1  0  0  0  0 
  5  6  1  0  0  0  0 
  5  7  1  0  0  0  0 
  5 26  1  0  0  0  0 
  6  8  1  0  0  0  0 
  6 27  1  0  0  0  0 
  6 28  1  0  0  0  0 
  7 11  1  0  0  0  0 
  7 29  1  0  0  0  0 
  7 30  1  0  0  0  0 
  8 10  1  0  0  0  0 
  8 31  1  0  0  0  0 
  8 32  1  0  0  0  0 
  9 10  1  0  0  0  0 
  9 33  1  0  0  0  0 
  9 34  1  0  0  0  0 
 10 35  1  0  0  0  0 
 10 36  1  0  0  0  0 
 11 37  1  0  0  0  0 
 11 38  1  0  0  0  0 
 12 39  1  0  0  0  0 
 12 40  1  0  0  0  0 
 12 41  1  0  0  0  0 
 13 15  2  0  0  0  0 
 13 17  1  0  0  0  0 
 14 16  1  0  0  0  0 
 14 18  2  0  0  0  0 
 15 19  1  0  0  0  0 
 16 20  2  0  0  0  0 
 17 21  2  0  0  0  0 
 17 42  1  0  0  0  0 
 18 22  1  0  0  0  0 
 18 43  1  0  0  0  0 
 19 23  2  0  0  0  0 
 19 44  1  0  0  0  0 
 20 24  1  0  0  0  0 
 20 45  1  0  0  0  0 
 21 23  1  0  0  0  0 
 22 24  2  0  0  0  0 
 22 46  1  0  0  0  0 
 23 47  1  0  0  0  0 
 24 48  1  0  0  0  0 
 25 49  1  0  0  0  0 
 25 50  1  0  0  0  0 
 25 51  1  0  0  0  0 
M  END
> <cdk:Title>
5452

> <cdk:Remark>
null

> <PUBCHEM_COMPOUND_CID>
5452

> <PUBCHEM_COMPOUND_CANONICALIZED>
1

> <PUBCHEM_CACTVS_COMPLEXITY>
432

> <PUBCHEM_CACTVS_HBOND_ACCEPTOR>
4

> <PUBCHEM_CACTVS_HBOND_DONOR>
0

> <PUBCHEM_CACTVS_ROTATABLE_BOND>
4

> <PUBCHEM_CACTVS_SUBSKEYS>
AAADceB7AABgAAAAAAAAAAAAAAAAAAAAAAA8eIEAAAAAAACxQAAAHAQAAAAACCjBUASywYMAAAiAACRCQACCAAAhChAIiBwIZIgIIGLg0ZGEIAxggADoyAcQgAAAAAgAACAAAQAAEAAAQAACAAAAAAAAAA==

> <PUBCHEM_IUPAC_OPENEYE_NAME>
10-[2-(1-methyl-2-piperidyl)ethyl]-2-methylsulfanyl-phenothiazine

> <PUBCHEM_IUPAC_CAS_NAME>
10-[2-(1-methyl-2-piperidinyl)ethyl]-2-(methylthio)phenothiazine

> <PUBCHEM_IUPAC_NAME>
10-[2-(1-methylpiperidin-2-yl)ethyl]-2-methylsulfanylphenothiazine

> <PUBCHEM_IUPAC_SYSTEMATIC_NAME>
10-[2-(1-methylpiperidin-2-yl)ethyl]-2-methylsulfanyl-phenothiazine

> <PUBCHEM_IUPAC_TRADITIONAL_NAME>
10-[2-(1-methyl-2-piperidyl)ethyl]-2-(methylthio)phenothiazine

> <PUBCHEM_IUPAC_INCHI>
InChI=1S/C21H26N2S2/c1-22-13-6-5-7-16(22)12-14-23-18-8-3-4-9-20(18)25-21-11-10-17(24-2)15-19(21)23/h3-4,8-11,15-16H,5-7,12-14H2,1-2H3

> <PUBCHEM_IUPAC_INCHIKEY>
KLBQZWRITKRQQV-UHFFFAOYSA-N

> <PUBCHEM_XLOGP3>
5.9

> <PUBCHEM_EXACT_MASS>
370.153741

> <PUBCHEM_MOLECULAR_FORMULA>
C21H26N2S2

> <PUBCHEM_MOLECULAR_WEIGHT>
370.57454

> <PUBCHEM_OPENEYE_CAN_SMILES>
CN1CCCCC1CCN2C3=CC=CC=C3SC4=C2C=C(C=C4)SC

> <PUBCHEM_OPENEYE_ISO_SMILES>
CN1CCCCC1CCN2C3=CC=CC=C3SC4=C2C=C(C=C4)SC

> <PUBCHEM_CACTVS_TPSA>
57.1

> <PUBCHEM_MONOISOTOPIC_WEIGHT>
370.153741

> <PUBCHEM_TOTAL_CHARGE>
0

> <PUBCHEM_HEAVY_ATOM_COUNT>
25

> <PUBCHEM_ATOM_DEF_STEREO_COUNT>
0

> <PUBCHEM_ATOM_UDEF_STEREO_COUNT>
1

> <PUBCHEM_BOND_DEF_STEREO_COUNT>
0

> <PUBCHEM_BOND_UDEF_STEREO_COUNT>
0

> <PUBCHEM_ISOTOPIC_ATOM_COUNT>
0

> <PUBCHEM_COMPONENT_COUNT>
1

> <PUBCHEM_CACTVS_TAUTO_COUNT>
1

> <PUBCHEM_COORDINATE_TYPE>
1
5
255

> <PUBCHEM_BONDANNOTATIONS>
13  15  8
13  17  8
14  16  8
14  18  8
15  19  8
16  20  8
17  21  8
18  22  8
19  23  8
20  24  8
21  23  8
22  24  8
5  7  3

> <DRUG_ID>
w78

> <DRUG_NAME>
Thioridazine

$$$$
27901
  CDK     0927151942
null
 42 44  0  0  0  0  0  0  0  0999 V2000
    2.0000    2.5684    0.0000 S   0  0  0  0  0  0  0  0  0  0  0  0
    3.6750   -2.5194    0.0000 N   0  0  0  0  0  0  0  0  0  0  0  0
    3.6750    0.4806    0.0000 N   0  0  3  0  0  0  0  0  0  0  0  0
    3.6750   -0.5194    0.0000 C   0  0  0  0  0  0  0  0  0  0  0  0
    2.8090   -1.0194    0.0000 C   0  0  0  0  0  0  0  0  0  0  0  0
    4.5411   -1.0194    0.0000 C   0  0  0  0  0  0  0  0  0  0  0  0
    4.5411   -2.0194    0.0000 C   0  0  0  0  0  0  0  0  0  0  0  0
    2.8090   -2.0194    0.0000 C   0  0  0  0  0  0  0  0  0  0  0  0
    2.8090    0.9806    0.0000 C   0  0  0  0  0  0  0  0  0  0  0  0
    4.5411    0.9806    0.0000 C   0  0  0  0  0  0  0  0  0  0  0  0
    3.6750   -3.5194    0.0000 C   0  0  0  0  0  0  0  0  0  0  0  0
    2.8090    1.9806    0.0000 C   0  0  0  0  0  0  0  0  0  0  0  0
    5.4071    0.4806    0.0000 C   0  0  0  0  0  0  0  0  0  0  0  0
    4.5411    1.9806    0.0000 C   0  0  0  0  0  0  0  0  0  0  0  0
    3.6180    2.5684    0.0000 C   0  0  0  0  0  0  0  0  0  0  0  0
    6.2731    0.9806    0.0000 C   0  0  0  0  0  0  0  0  0  0  0  0
    5.4071    2.4806    0.0000 C   0  0  0  0  0  0  0  0  0  0  0  0
    6.2731    1.9806    0.0000 C   0  0  0  0  0  0  0  0  0  0  0  0
    3.3090    3.5194    0.0000 C   0  0  0  0  0  0  0  0  0  0  0  0
    2.3090    3.5194    0.0000 C   0  0  0  0  0  0  0  0  0  0  0  0
    4.2120   -0.2094    0.0000 H   0  0  0  0  0  0  0  0  0  0  0  0
    2.5970   -0.4368    0.0000 H   0  0  0  0  0  0  0  0  0  0  0  0
    2.1984   -1.1271    0.0000 H   0  0  0  0  0  0  0  0  0  0  0  0
    5.1516   -1.1271    0.0000 H   0  0  0  0  0  0  0  0  0  0  0  0
    4.7531   -0.4368    0.0000 H   0  0  0  0  0  0  0  0  0  0  0  0
    2.1984   -1.9118    0.0000 H   0  0  0  0  0  0  0  0  0  0  0  0
    2.5970   -2.6020    0.0000 H   0  0  0  0  0  0  0  0  0  0  0  0
    4.7531   -2.6020    0.0000 H   0  0  0  0  0  0  0  0  0  0  0  0
    5.1516   -1.9118    0.0000 H   0  0  0  0  0  0  0  0  0  0  0  0
    2.1984    1.0882    0.0000 H   0  0  0  0  0  0  0  0  0  0  0  0
    2.5970    0.3980    0.0000 H   0  0  0  0  0  0  0  0  0  0  0  0
    3.0550   -3.5194    0.0000 H   0  0  0  0  0  0  0  0  0  0  0  0
    3.6750   -4.1394    0.0000 H   0  0  0  0  0  0  0  0  0  0  0  0
    4.2950   -3.5194    0.0000 H   0  0  0  0  0  0  0  0  0  0  0  0
    5.4071   -0.1394    0.0000 H   0  0  0  0  0  0  0  0  0  0  0  0
    4.0041    2.2906    0.0000 H   0  0  0  0  0  0  0  0  0  0  0  0
    4.2077    2.3768    0.0000 H   0  0  0  0  0  0  0  0  0  0  0  0
    6.8100    0.6706    0.0000 H   0  0  0  0  0  0  0  0  0  0  0  0
    5.4071    3.1006    0.0000 H   0  0  0  0  0  0  0  0  0  0  0  0
    6.8100    2.2906    0.0000 H   0  0  0  0  0  0  0  0  0  0  0  0
    3.6734    4.0210    0.0000 H   0  0  0  0  0  0  0  0  0  0  0  0
    1.9446    4.0210    0.0000 H   0  0  0  0  0  0  0  0  0  0  0  0
  1 12  1  0  0  0  0 
  1 20  1  0  0  0  0 
  2  7  1  0  0  0  0 
  2  8  1  0  0  0  0 
  2 11  1  0  0  0  0 
  3  4  1  0  0  0  0 
  3  9  1  0  0  0  0 
  3 10  1  0  0  0  0 
  4  5  1  0  0  0  0 
  4  6  1  0  0  0  0 
  4 21  1  0  0  0  0 
  5  8  1  0  0  0  0 
  5 22  1  0  0  0  0 
  5 23  1  0  0  0  0 
  6  7  1  0  0  0  0 
  6 24  1  0  0  0  0 
  6 25  1  0  0  0  0 
  7 28  1  0  0  0  0 
  7 29  1  0  0  0  0 
  8 26  1  0  0  0  0 
  8 27  1  0  0  0  0 
  9 12  1  0  0  0  0 
  9 30  1  0  0  0  0 
  9 31  1  0  0  0  0 
 10 13  2  0  0  0  0 
 10 14  1  0  0  0  0 
 11 32  1  0  0  0  0 
 11 33  1  0  0  0  0 
 11 34  1  0  0  0  0 
 12 15  2  0  0  0  0 
 13 16  1  0  0  0  0 
 13 35  1  0  0  0  0 
 14 17  2  0  0  0  0 
 14 36  1  0  0  0  0 
 15 19  1  0  0  0  0 
 15 37  1  0  0  0  0 
 16 18  2  0  0  0  0 
 16 38  1  0  0  0  0 
 17 18  1  0  0  0  0 
 17 39  1  0  0  0  0 
 18 40  1  0  0  0  0 
 19 20  2  0  0  0  0 
 19 41  1  0  0  0  0 
 20 42  1  0  0  0  0 
M  END
> <cdk:Title>
27901

> <cdk:Remark>
null

> <PUBCHEM_COMPOUND_CID>
27901

> <PUBCHEM_COMPOUND_CANONICALIZED>
1

> <PUBCHEM_CACTVS_COMPLEXITY>
283

> <PUBCHEM_CACTVS_HBOND_ACCEPTOR>
3

> <PUBCHEM_CACTVS_HBOND_DONOR>
0

> <PUBCHEM_CACTVS_ROTATABLE_BOND>
4

> <PUBCHEM_CACTVS_SUBSKEYS>
AAADceB7AABAAAAAAAAAAAAAAAAAASAAAAA8QAAAAAAAAAABwAAAHAQAAAAACCjFUASywYMAAAiEACRCQACDAIAhChBIiBgIZIgIICLg0ZGEIAhggADoyAcQAAAAAAAAAAAAAAAAAAAAAAAAAAAAAAAAAA==

> <PUBCHEM_IUPAC_OPENEYE_NAME>
1-methyl-N-phenyl-N-(2-thienylmethyl)piperidin-4-amine

> <PUBCHEM_IUPAC_CAS_NAME>
1-methyl-N-phenyl-N-(thiophen-2-ylmethyl)-4-piperidinamine

> <PUBCHEM_IUPAC_NAME>
1-methyl-N-phenyl-N-(thiophen-2-ylmethyl)piperidin-4-amine

> <PUBCHEM_IUPAC_SYSTEMATIC_NAME>
1-methyl-N-phenyl-N-(thiophen-2-ylmethyl)piperidin-4-amine

> <PUBCHEM_IUPAC_TRADITIONAL_NAME>
(1-methyl-4-piperidyl)-phenyl-(2-thenyl)amine

> <PUBCHEM_IUPAC_INCHI>
InChI=1S/C17H22N2S/c1-18-11-9-16(10-12-18)19(14-17-8-5-13-20-17)15-6-3-2-4-7-15/h2-8,13,16H,9-12,14H2,1H3

> <PUBCHEM_IUPAC_INCHIKEY>
KLOHYVOVXOUKQI-UHFFFAOYSA-N

> <PUBCHEM_XLOGP3_AA>
3.8

> <PUBCHEM_EXACT_MASS>
286.15037

> <PUBCHEM_MOLECULAR_FORMULA>
C17H22N2S

> <PUBCHEM_MOLECULAR_WEIGHT>
286.43498

> <PUBCHEM_OPENEYE_CAN_SMILES>
CN1CCC(CC1)N(CC2=CC=CS2)C3=CC=CC=C3

> <PUBCHEM_OPENEYE_ISO_SMILES>
CN1CCC(CC1)N(CC2=CC=CS2)C3=CC=CC=C3

> <PUBCHEM_CACTVS_TPSA>
34.7

> <PUBCHEM_MONOISOTOPIC_WEIGHT>
286.15037

> <PUBCHEM_TOTAL_CHARGE>
0

> <PUBCHEM_HEAVY_ATOM_COUNT>
20

> <PUBCHEM_ATOM_DEF_STEREO_COUNT>
0

> <PUBCHEM_ATOM_UDEF_STEREO_COUNT>
0

> <PUBCHEM_BOND_DEF_STEREO_COUNT>
0

> <PUBCHEM_BOND_UDEF_STEREO_COUNT>
0

> <PUBCHEM_ISOTOPIC_ATOM_COUNT>
0

> <PUBCHEM_COMPONENT_COUNT>
1

> <PUBCHEM_CACTVS_TAUTO_COUNT>
1

> <PUBCHEM_COORDINATE_TYPE>
1
5
255

> <PUBCHEM_BONDANNOTATIONS>
1  12  8
1  20  8
10  13  8
10  14  8
12  15  8
13  16  8
14  17  8
15  19  8
16  18  8
17  18  8
19  20  8

> <DRUG_ID>
w79

> <DRUG_NAME>
Thenalidine

$$$$
439369
  CDK     0927151942
null
 81 83  0  0  0  0  0  0  0  0999 V2000
    5.8520    0.0006    0.0000 O   0  0  0  0  0  0  0  0  0  0  0  0
    7.6316    0.0938    0.0000 O   0  0  0  0  0  0  0  0  0  0  0  0
    6.0794    2.1642    0.0000 O   0  0  0  0  0  0  0  0  0  0  0  0
    7.5928    2.6812    0.0000 O   0  0  0  0  0  0  0  0  0  0  0  0
    7.2384    3.4514    0.0000 O   0  0  0  0  0  0  0  0  0  0  0  0
    7.5841   -0.9994    0.0000 O   0  0  0  0  0  0  0  0  0  0  0  0
    4.1200   -2.9994    0.0000 O   0  0  0  0  0  0  0  0  0  0  0  0
    7.5841   -2.9994    0.0000 O   0  0  0  0  0  0  0  0  0  0  0  0
    9.5328    1.7030    0.0000 O   0  0  0  0  0  0  0  0  0  0  0  0
    5.0090    5.4588    0.0000 O   0  0  0  0  0  0  0  0  0  0  0  0
    6.9111    6.0768    0.0000 O   0  0  0  0  0  0  0  0  0  0  0  0
    9.1405    4.0694    0.0000 O   0  0  0  0  0  0  0  0  0  0  0  0
    4.1200   -0.9994    0.0000 N   0  0  0  0  0  0  0  0  0  0  0  0
    4.5932    3.5025    0.0000 N   0  0  0  0  0  0  0  0  0  0  0  0
    5.8520   -3.9994    0.0000 N   0  0  0  0  0  0  0  0  0  0  0  0
    2.6200   -0.1333    0.0000 N   0  0  0  0  0  0  0  0  0  0  0  0
    2.6200   -1.8655    0.0000 N   0  0  0  0  0  0  0  0  0  0  0  0
    5.8520   -5.7315    0.0000 N   0  0  0  0  0  0  0  0  0  0  0  0
    7.3520   -4.8654    0.0000 N   0  0  0  0  0  0  0  0  0  0  0  0
    6.8226    1.4951    0.0000 C   0  0  2  0  0  0  0  0  0  0  0  0
    7.8008    1.7030    0.0000 C   0  0  1  0  0  0  0  0  0  0  0  0
    6.7181    0.5006    0.0000 C   0  0  2  0  0  0  0  0  0  0  0  0
    5.8520   -0.9994    0.0000 C   0  0  2  0  0  0  0  0  0  0  0  0
    8.3008    0.8370    0.0000 C   0  0  2  0  0  0  0  0  0  0  0  0
    4.9860   -1.4994    0.0000 C   0  0  2  0  0  0  0  0  0  0  0  0
    6.7181   -1.4994    0.0000 C   0  0  1  0  0  0  0  0  0  0  0  0
    4.9860   -2.4994    0.0000 C   0  0  1  0  0  0  0  0  0  0  0  0
    6.7181   -2.4994    0.0000 C   0  0  2  0  0  0  0  0  0  0  0  0
    5.8520   -2.9994    0.0000 C   0  0  2  0  0  0  0  0  0  0  0  0
    6.2874    3.1424    0.0000 C   0  0  2  0  0  0  0  0  0  0  0  0
    8.6668    2.2030    0.0000 C   0  0  0  0  0  0  0  0  0  0  0  0
    5.5442    3.8115    0.0000 C   0  0  2  0  0  0  0  0  0  0  0  0
    5.7521    4.7896    0.0000 C   0  0  1  0  0  0  0  0  0  0  0  0
    9.2953    0.7325    0.0000 C   0  0  0  0  0  0  0  0  0  0  0  0
    6.7032    5.0987    0.0000 C   0  0  2  0  0  0  0  0  0  0  0  0
    7.4463    4.4295    0.0000 C   0  0  2  0  0  0  0  0  0  0  0  0
    8.3974    4.7386    0.0000 C   0  0  0  0  0  0  0  0  0  0  0  0
    3.1200   -0.9994    0.0000 C   0  0  0  0  0  0  0  0  0  0  0  0
    3.8500    4.1716    0.0000 C   0  0  0  0  0  0  0  0  0  0  0  0
    6.3520   -4.8654    0.0000 C   0  0  0  0  0  0  0  0  0  0  0  0
    6.9831    2.0940    0.0000 H   0  0  0  0  0  0  0  0  0  0  0  0
    6.7505   -0.1186    0.0000 H   0  0  0  0  0  0  0  0  0  0  0  0
    6.3890   -0.6894    0.0000 H   0  0  0  0  0  0  0  0  0  0  0  0
    8.5229    0.2582    0.0000 H   0  0  0  0  0  0  0  0  0  0  0  0
    4.9860   -0.8794    0.0000 H   0  0  0  0  0  0  0  0  0  0  0  0
    6.7181   -0.8794    0.0000 H   0  0  0  0  0  0  0  0  0  0  0  0
    4.9860   -3.1194    0.0000 H   0  0  0  0  0  0  0  0  0  0  0  0
    6.7181   -3.1194    0.0000 H   0  0  0  0  0  0  0  0  0  0  0  0
    6.3890   -3.3094    0.0000 H   0  0  0  0  0  0  0  0  0  0  0  0
    5.6977    2.9508    0.0000 H   0  0  0  0  0  0  0  0  0  0  0  0
    9.0653    2.6780    0.0000 H   0  0  0  0  0  0  0  0  0  0  0  0
    8.2682    2.6780    0.0000 H   0  0  0  0  0  0  0  0  0  0  0  0
    5.4153    3.2051    0.0000 H   0  0  0  0  0  0  0  0  0  0  0  0
    5.1625    4.5981    0.0000 H   0  0  0  0  0  0  0  0  0  0  0  0
    9.2305    0.1159    0.0000 H   0  0  0  0  0  0  0  0  0  0  0  0
    9.9119    0.6676    0.0000 H   0  0  0  0  0  0  0  0  0  0  0  0
    9.3601    1.3491    0.0000 H   0  0  0  0  0  0  0  0  0  0  0  0
    7.2928    5.2903    0.0000 H   0  0  0  0  0  0  0  0  0  0  0  0
    7.9071    4.0147    0.0000 H   0  0  0  0  0  0  0  0  0  0  0  0
    7.0032    2.8728    0.0000 H   0  0  0  0  0  0  0  0  0  0  0  0
    8.1210   -1.3094    0.0000 H   0  0  0  0  0  0  0  0  0  0  0  0
    4.4643    2.8960    0.0000 H   0  0  0  0  0  0  0  0  0  0  0  0
    4.1200   -3.6194    0.0000 H   0  0  0  0  0  0  0  0  0  0  0  0
    8.1210   -2.6894    0.0000 H   0  0  0  0  0  0  0  0  0  0  0  0
    8.8860    5.1203    0.0000 H   0  0  0  0  0  0  0  0  0  0  0  0
    8.1063    5.2860    0.0000 H   0  0  0  0  0  0  0  0  0  0  0  0
   10.0697    2.0130    0.0000 H   0  0  0  0  0  0  0  0  0  0  0  0
    5.1379    6.0652    0.0000 H   0  0  0  0  0  0  0  0  0  0  0  0
    7.5008    6.2684    0.0000 H   0  0  0  0  0  0  0  0  0  0  0  0
    4.2649    4.6324    0.0000 H   0  0  0  0  0  0  0  0  0  0  0  0
    3.3893    4.5865    0.0000 H   0  0  0  0  0  0  0  0  0  0  0  0
    3.4352    3.7109    0.0000 H   0  0  0  0  0  0  0  0  0  0  0  0
    9.7302    4.2610    0.0000 H   0  0  0  0  0  0  0  0  0  0  0  0
    2.0000   -1.8655    0.0000 H   0  0  0  0  0  0  0  0  0  0  0  0
    2.9300   -2.4024    0.0000 H   0  0  0  0  0  0  0  0  0  0  0  0
    2.0000   -0.1333    0.0000 H   0  0  0  0  0  0  0  0  0  0  0  0
    2.9300    0.4035    0.0000 H   0  0  0  0  0  0  0  0  0  0  0  0
    7.6620   -5.4024    0.0000 H   0  0  0  0  0  0  0  0  0  0  0  0
    7.6620   -4.3285    0.0000 H   0  0  0  0  0  0  0  0  0  0  0  0
    5.2320   -5.7315    0.0000 H   0  0  0  0  0  0  0  0  0  0  0  0
    6.1620   -6.2684    0.0000 H   0  0  0  0  0  0  0  0  0  0  0  0
 22  1  1  1  0  0  0 
 23  1  1  1  0  0  0 
  2 22  1  0  0  0  0 
  2 24  1  0  0  0  0 
 20  3  1  6  0  0  0 
 30  3  1  1  0  0  0 
 21  4  1  6  0  0  0 
  4 60  1  0  0  0  0 
  5 30  1  0  0  0  0 
  5 36  1  0  0  0  0 
 26  6  1  6  0  0  0 
  6 61  1  0  0  0  0 
 27  7  1  1  0  0  0 
  7 63  1  0  0  0  0 
 28  8  1  1  0  0  0 
  8 64  1  0  0  0  0 
  9 31  1  0  0  0  0 
  9 67  1  0  0  0  0 
 33 10  1  6  0  0  0 
 10 68  1  0  0  0  0 
 35 11  1  1  0  0  0 
 11 69  1  0  0  0  0 
 12 37  1  0  0  0  0 
 12 73  1  0  0  0  0 
 25 13  1  6  0  0  0 
 13 38  2  0  0  0  0 
 32 14  1  1  0  0  0 
 14 39  1  0  0  0  0 
 14 62  1  0  0  0  0 
 29 15  1  6  0  0  0 
 15 40  2  0  0  0  0 
 16 38  1  0  0  0  0 
 16 76  1  0  0  0  0 
 16 77  1  0  0  0  0 
 17 38  1  0  0  0  0 
 17 74  1  0  0  0  0 
 17 75  1  0  0  0  0 
 18 40  1  0  0  0  0 
 18 80  1  0  0  0  0 
 18 81  1  0  0  0  0 
 19 40  1  0  0  0  0 
 19 78  1  0  0  0  0 
 19 79  1  0  0  0  0 
 20 21  1  0  0  0  0 
 20 22  1  0  0  0  0 
 20 41  1  0  0  0  0 
 21 24  1  0  0  0  0 
 21 31  1  0  0  0  0 
 22 42  1  0  0  0  0 
 23 25  1  0  0  0  0 
 23 26  1  0  0  0  0 
 23 43  1  0  0  0  0 
 24 34  1  6  0  0  0 
 24 44  1  0  0  0  0 
 25 27  1  0  0  0  0 
 25 45  1  0  0  0  0 
 26 28  1  0  0  0  0 
 26 46  1  0  0  0  0 
 27 29  1  0  0  0  0 
 27 47  1  0  0  0  0 
 28 29  1  0  0  0  0 
 28 48  1  0  0  0  0 
 29 49  1  0  0  0  0 
 30 32  1  0  0  0  0 
 30 50  1  0  0  0  0 
 31 51  1  0  0  0  0 
 31 52  1  0  0  0  0 
 32 33  1  0  0  0  0 
 32 53  1  0  0  0  0 
 33 35  1  0  0  0  0 
 33 54  1  0  0  0  0 
 34 55  1  0  0  0  0 
 34 56  1  0  0  0  0 
 34 57  1  0  0  0  0 
 35 36  1  0  0  0  0 
 35 58  1  0  0  0  0 
 36 37  1  6  0  0  0 
 36 59  1  0  0  0  0 
 37 65  1  0  0  0  0 
 37 66  1  0  0  0  0 
 39 70  1  0  0  0  0 
 39 71  1  0  0  0  0 
 39 72  1  0  0  0  0 
M  END
> <cdk:Title>
439369

> <cdk:Remark>
null

> <PUBCHEM_COMPOUND_CID>
439369

> <PUBCHEM_COMPOUND_CANONICALIZED>
1

> <PUBCHEM_CACTVS_COMPLEXITY>
911

> <PUBCHEM_CACTVS_HBOND_ACCEPTOR>
15

> <PUBCHEM_CACTVS_HBOND_DONOR>
13

> <PUBCHEM_CACTVS_ROTATABLE_BOND>
9

> <PUBCHEM_CACTVS_SUBSKEYS>
AAADcfB7vAAAAAAAAAAAAAAAAAAAASAAAAA0QAAAAAAAAAAAAAAAHgAQCAAADHzxgAcDCALABgAgAAAAJAAAAAEAAAAAAIAIAAATEAIAwAAnQAAHEAAXAAHwcA8KAAAAAAAAAAACgAAUCACgAAAAAAAAAA==

> <PUBCHEM_IUPAC_OPENEYE_NAME>
2-[(1S,2R,3R,4S,5R,6R)-2-[(2R,3R,4R,5S)-3-[(2S,3S,4S,5R,6S)-4,5-dihydroxy-6-(hydroxymethyl)-3-(methylamino)tetrahydropyran-2-yl]oxy-4-hydroxy-4-(hydroxymethyl)-5-methyl-tetrahydrofuran-2-yl]oxy-5-guanidino-3,4,6-trihydroxy-cyclohexyl]guanidine

> <PUBCHEM_IUPAC_CAS_NAME>
2-[(1R,2R,3S,4R,5R,6S)-3-(diaminomethylideneamino)-4-[[(2R,3R,4R,5S)-3-[[(2S,3S,4S,5R,6S)-4,5-dihydroxy-6-(hydroxymethyl)-3-(methylamino)-2-oxanyl]oxy]-4-hydroxy-4-(hydroxymethyl)-5-methyl-2-oxolanyl]oxy]-2,5,6-trihydroxycyclohexyl]guanidine

> <PUBCHEM_IUPAC_NAME>
2-[(1R,2R,3S,4R,5R,6S)-3-(diaminomethylideneamino)-4-[(2R,3R,4R,5S)-3-[(2S,3S,4S,5R,6S)-4,5-dihydroxy-6-(hydroxymethyl)-3-(methylamino)oxan-2-yl]oxy-4-hydroxy-4-(hydroxymethyl)-5-methyloxolan-2-yl]oxy-2,5,6-trihydroxycyclohexyl]guanidine

> <PUBCHEM_IUPAC_SYSTEMATIC_NAME>
2-[(1R,2R,3S,4R,5R,6S)-3-[bis(azanyl)methylideneamino]-4-[(2R,3R,4R,5S)-4-(hydroxymethyl)-3-[(2S,3S,4S,5R,6S)-6-(hydroxymethyl)-3-(methylamino)-4,5-bis(oxidanyl)oxan-2-yl]oxy-5-methyl-4-oxidanyl-oxolan-2-yl]oxy-2,5,6-tris(oxidanyl)cyclohexyl]guanidine

> <PUBCHEM_IUPAC_TRADITIONAL_NAME>
2-[(1S,2R,3R,4S,5R,6R)-2-[(2R,3R,4R,5S)-3-[(2S,3S,4S,5R,6S)-4,5-dihydroxy-3-(methylamino)-6-methylol-tetrahydropyran-2-yl]oxy-4-hydroxy-5-methyl-4-methylol-tetrahydrofuran-2-yl]oxy-5-guanidino-3,4,6-trihydroxy-cyclohexyl]guanidine

> <PUBCHEM_IUPAC_INCHI>
InChI=1S/C21H41N7O12/c1-5-21(36,4-30)16(40-17-9(26-2)13(34)10(31)6(3-29)38-17)18(37-5)39-15-8(28-20(24)25)11(32)7(27-19(22)23)12(33)14(15)35/h5-18,26,29-36H,3-4H2,1-2H3,(H4,22,23,27)(H4,24,25,28)/t5-,6-,7+,8-,9-,10-,11+,12-,13-,14+,15+,16-,17-,18-,21+/m0/s1

> <PUBCHEM_IUPAC_INCHIKEY>
ASXBYYWOLISCLQ-HZYVHMACSA-N

> <PUBCHEM_XLOGP3_AA>
-8.2

> <PUBCHEM_EXACT_MASS>
583.28132

> <PUBCHEM_MOLECULAR_FORMULA>
C21H41N7O12

> <PUBCHEM_MOLECULAR_WEIGHT>
583.58994

> <PUBCHEM_OPENEYE_CAN_SMILES>
CC1C(C(C(O1)OC2C(C(C(C(C2O)O)N=C(N)N)O)N=C(N)N)OC3C(C(C(C(O3)CO)O)O)NC)(CO)O

> <PUBCHEM_OPENEYE_ISO_SMILES>
C[C@H]1[C@@]([C@H]([C@@H](O1)O[C@@H]2[C@H]([C@@H]([C@H]([C@@H]([C@H]2O)O)N=C(N)N)O)N=C(N)N)O[C@H]3[C@H]([C@@H]([C@H]([C@@H](O3)CO)O)O)NC)(CO)O

> <PUBCHEM_CACTVS_TPSA>
340

> <PUBCHEM_MONOISOTOPIC_WEIGHT>
583.28132

> <PUBCHEM_TOTAL_CHARGE>
0

> <PUBCHEM_HEAVY_ATOM_COUNT>
40

> <PUBCHEM_ATOM_DEF_STEREO_COUNT>
15

> <PUBCHEM_ATOM_UDEF_STEREO_COUNT>
0

> <PUBCHEM_BOND_DEF_STEREO_COUNT>
0

> <PUBCHEM_BOND_UDEF_STEREO_COUNT>
0

> <PUBCHEM_ISOTOPIC_ATOM_COUNT>
0

> <PUBCHEM_COMPONENT_COUNT>
1

> <PUBCHEM_CACTVS_TAUTO_COUNT>
4

> <PUBCHEM_COORDINATE_TYPE>
1
5
255

> <PUBCHEM_BONDANNOTATIONS>
22  1  5
23  1  5
33  10  6
35  11  5
25  13  6
32  14  5
29  15  6
24  34  6
20  3  6
30  3  5
36  37  6
21  4  6
26  6  6
27  7  5
28  8  5

> <DRUG_ID>
w8

> <DRUG_NAME>
Dihydrostreptomycin

$$$$
26937
  CDK     0927151942
null
 39 39  0  0  0  0  0  0  0  0999 V2000
    2.8660   -3.7500    0.0000 Cl  0  0  0  0  0  0  0  0  0  0  0  0
    3.2320    1.6160    0.0000 O   0  0  0  0  0  0  0  0  0  0  0  0
    5.4641    2.7500    0.0000 N   0  0  0  0  0  0  0  0  0  0  0  0
    3.7320    0.7500    0.0000 C   0  0  3  0  0  0  0  0  0  0  0  0
    4.5981    1.2500    0.0000 C   0  0  3  0  0  0  0  0  0  0  0  0
    2.8660    0.2500    0.0000 C   0  0  0  0  0  0  0  0  0  0  0  0
    4.5981    2.2500    0.0000 C   0  0  0  0  0  0  0  0  0  0  0  0
    4.2320   -0.1160    0.0000 C   0  0  0  0  0  0  0  0  0  0  0  0
    5.4641    0.7500    0.0000 C   0  0  0  0  0  0  0  0  0  0  0  0
    2.8660   -0.7500    0.0000 C   0  0  0  0  0  0  0  0  0  0  0  0
    5.4641    3.7500    0.0000 C   0  0  0  0  0  0  0  0  0  0  0  0
    6.3301    2.2500    0.0000 C   0  0  0  0  0  0  0  0  0  0  0  0
    2.0000   -1.2500    0.0000 C   0  0  0  0  0  0  0  0  0  0  0  0
    3.7320   -1.2500    0.0000 C   0  0  0  0  0  0  0  0  0  0  0  0
    2.0000   -2.2500    0.0000 C   0  0  0  0  0  0  0  0  0  0  0  0
    3.7320   -2.2500    0.0000 C   0  0  0  0  0  0  0  0  0  0  0  0
    2.8660   -2.7500    0.0000 C   0  0  0  0  0  0  0  0  0  0  0  0
    4.5981    0.6300    0.0000 H   0  0  0  0  0  0  0  0  0  0  0  0
    2.6540    0.8326    0.0000 H   0  0  0  0  0  0  0  0  0  0  0  0
    2.2554    0.1423    0.0000 H   0  0  0  0  0  0  0  0  0  0  0  0
    4.3860    2.8326    0.0000 H   0  0  0  0  0  0  0  0  0  0  0  0
    3.9875    2.1423    0.0000 H   0  0  0  0  0  0  0  0  0  0  0  0
    3.6951   -0.4260    0.0000 H   0  0  0  0  0  0  0  0  0  0  0  0
    4.5420   -0.6530    0.0000 H   0  0  0  0  0  0  0  0  0  0  0  0
    4.7690    0.1940    0.0000 H   0  0  0  0  0  0  0  0  0  0  0  0
    5.1541    0.2131    0.0000 H   0  0  0  0  0  0  0  0  0  0  0  0
    6.0010    0.4400    0.0000 H   0  0  0  0  0  0  0  0  0  0  0  0
    5.7741    1.2869    0.0000 H   0  0  0  0  0  0  0  0  0  0  0  0
    2.6120    1.6160    0.0000 H   0  0  0  0  0  0  0  0  0  0  0  0
    6.0841    3.7500    0.0000 H   0  0  0  0  0  0  0  0  0  0  0  0
    5.4641    4.3700    0.0000 H   0  0  0  0  0  0  0  0  0  0  0  0
    4.8441    3.7500    0.0000 H   0  0  0  0  0  0  0  0  0  0  0  0
    6.0201    1.7131    0.0000 H   0  0  0  0  0  0  0  0  0  0  0  0
    6.8671    1.9400    0.0000 H   0  0  0  0  0  0  0  0  0  0  0  0
    6.6401    2.7869    0.0000 H   0  0  0  0  0  0  0  0  0  0  0  0
    1.4631   -0.9400    0.0000 H   0  0  0  0  0  0  0  0  0  0  0  0
    4.2690   -0.9400    0.0000 H   0  0  0  0  0  0  0  0  0  0  0  0
    1.4631   -2.5600    0.0000 H   0  0  0  0  0  0  0  0  0  0  0  0
    4.2690   -2.5600    0.0000 H   0  0  0  0  0  0  0  0  0  0  0  0
  1 17  1  0  0  0  0 
  2  4  1  0  0  0  0 
  2 29  1  0  0  0  0 
  3  7  1  0  0  0  0 
  3 11  1  0  0  0  0 
  3 12  1  0  0  0  0 
  4  5  1  0  0  0  0 
  4  6  1  0  0  0  0 
  4  8  1  0  0  0  0 
  5  7  1  0  0  0  0 
  5  9  1  0  0  0  0 
  5 18  1  0  0  0  0 
  6 10  1  0  0  0  0 
  6 19  1  0  0  0  0 
  6 20  1  0  0  0  0 
  7 21  1  0  0  0  0 
  7 22  1  0  0  0  0 
  8 23  1  0  0  0  0 
  8 24  1  0  0  0  0 
  8 25  1  0  0  0  0 
  9 26  1  0  0  0  0 
  9 27  1  0  0  0  0 
  9 28  1  0  0  0  0 
 10 13  2  0  0  0  0 
 10 14  1  0  0  0  0 
 11 30  1  0  0  0  0 
 11 31  1  0  0  0  0 
 11 32  1  0  0  0  0 
 12 33  1  0  0  0  0 
 12 34  1  0  0  0  0 
 12 35  1  0  0  0  0 
 13 15  1  0  0  0  0 
 13 36  1  0  0  0  0 
 14 16  2  0  0  0  0 
 14 37  1  0  0  0  0 
 15 17  2  0  0  0  0 
 15 38  1  0  0  0  0 
 16 17  1  0  0  0  0 
 16 39  1  0  0  0  0 
M  END
> <cdk:Title>
26937

> <cdk:Remark>
null

> <PUBCHEM_COMPOUND_CID>
26937

> <PUBCHEM_COMPOUND_CANONICALIZED>
1

> <PUBCHEM_CACTVS_COMPLEXITY>
226

> <PUBCHEM_CACTVS_HBOND_ACCEPTOR>
2

> <PUBCHEM_CACTVS_HBOND_DONOR>
1

> <PUBCHEM_CACTVS_ROTATABLE_BOND>
5

> <PUBCHEM_CACTVS_SUBSKEYS>
AAADceByIAAEAAAAAAAAAAAAAAAAAAAAAAAwAAAAAAAAAAABAAAAHgIACAAADUbBmCQyAIMAAgCAAiBCAAACAAAgBQAIiAAIAogIICKBkxCEYAAmwAEIiAeQwOAOhAAAAAAAAAAIAAAAAAAAAAAAAAAAAA==

> <PUBCHEM_IUPAC_OPENEYE_NAME>
1-(4-chlorophenyl)-4-(dimethylamino)-2,3-dimethyl-butan-2-ol

> <PUBCHEM_IUPAC_CAS_NAME>
1-(4-chlorophenyl)-4-(dimethylamino)-2,3-dimethyl-2-butanol

> <PUBCHEM_IUPAC_NAME>
1-(4-chlorophenyl)-4-(dimethylamino)-2,3-dimethylbutan-2-ol

> <PUBCHEM_IUPAC_SYSTEMATIC_NAME>
1-(4-chlorophenyl)-4-(dimethylamino)-2,3-dimethyl-butan-2-ol

> <PUBCHEM_IUPAC_TRADITIONAL_NAME>
1-(4-chlorophenyl)-4-(dimethylamino)-2,3-dimethyl-butan-2-ol

> <PUBCHEM_IUPAC_INCHI>
InChI=1S/C14H22ClNO/c1-11(10-16(3)4)14(2,17)9-12-5-7-13(15)8-6-12/h5-8,11,17H,9-10H2,1-4H3

> <PUBCHEM_IUPAC_INCHIKEY>
KVHHQGIIZCJATJ-UHFFFAOYSA-N

> <PUBCHEM_XLOGP3_AA>
3.2

> <PUBCHEM_EXACT_MASS>
255.138992

> <PUBCHEM_MOLECULAR_FORMULA>
C14H22ClNO

> <PUBCHEM_MOLECULAR_WEIGHT>
255.78358

> <PUBCHEM_OPENEYE_CAN_SMILES>
CC(CN(C)C)C(C)(CC1=CC=C(C=C1)Cl)O

> <PUBCHEM_OPENEYE_ISO_SMILES>
CC(CN(C)C)C(C)(CC1=CC=C(C=C1)Cl)O

> <PUBCHEM_CACTVS_TPSA>
23.5

> <PUBCHEM_MONOISOTOPIC_WEIGHT>
255.138992

> <PUBCHEM_TOTAL_CHARGE>
0

> <PUBCHEM_HEAVY_ATOM_COUNT>
17

> <PUBCHEM_ATOM_DEF_STEREO_COUNT>
0

> <PUBCHEM_ATOM_UDEF_STEREO_COUNT>
2

> <PUBCHEM_BOND_DEF_STEREO_COUNT>
0

> <PUBCHEM_BOND_UDEF_STEREO_COUNT>
0

> <PUBCHEM_ISOTOPIC_ATOM_COUNT>
0

> <PUBCHEM_COMPONENT_COUNT>
1

> <PUBCHEM_CACTVS_TAUTO_COUNT>
1

> <PUBCHEM_COORDINATE_TYPE>
1
5
255

> <PUBCHEM_BONDANNOTATIONS>
10  13  8
10  14  8
13  15  8
14  16  8
15  17  8
16  17  8
4  2  3
5  9  3

> <DRUG_ID>
w80

> <DRUG_NAME>
Clobutinol

$$$$
5641
  CDK     0927151942
null
 13 12  0  0  0  0  0  0  0  0999 V2000
    3.7320    0.4400    0.0000 O   0  0  0  0  0  0  0  0  0  0  0  0
    4.5981   -1.0600    0.0000 O   0  0  0  0  0  0  0  0  0  0  0  0
    5.4641    0.4400    0.0000 N   0  0  0  0  0  0  0  0  0  0  0  0
    2.8660   -0.0600    0.0000 C   0  0  0  0  0  0  0  0  0  0  0  0
    2.0000    0.4400    0.0000 C   0  0  0  0  0  0  0  0  0  0  0  0
    4.5981   -0.0600    0.0000 C   0  0  0  0  0  0  0  0  0  0  0  0
    2.4675   -0.5349    0.0000 H   0  0  0  0  0  0  0  0  0  0  0  0
    3.2646   -0.5349    0.0000 H   0  0  0  0  0  0  0  0  0  0  0  0
    2.3100    0.9769    0.0000 H   0  0  0  0  0  0  0  0  0  0  0  0
    1.4631    0.7500    0.0000 H   0  0  0  0  0  0  0  0  0  0  0  0
    1.6900   -0.0969    0.0000 H   0  0  0  0  0  0  0  0  0  0  0  0
    6.0010    0.1300    0.0000 H   0  0  0  0  0  0  0  0  0  0  0  0
    5.4641    1.0600    0.0000 H   0  0  0  0  0  0  0  0  0  0  0  0
  1  4  1  0  0  0  0 
  1  6  1  0  0  0  0 
  2  6  2  0  0  0  0 
  3  6  1  0  0  0  0 
  3 12  1  0  0  0  0 
  3 13  1  0  0  0  0 
  4  5  1  0  0  0  0 
  4  7  1  0  0  0  0 
  4  8  1  0  0  0  0 
  5  9  1  0  0  0  0 
  5 10  1  0  0  0  0 
  5 11  1  0  0  0  0 
M  END
> <cdk:Title>
5641

> <cdk:Remark>
null

> <PUBCHEM_COMPOUND_CID>
5641

> <PUBCHEM_COMPOUND_CANONICALIZED>
1

> <PUBCHEM_CACTVS_COMPLEXITY>
52.8

> <PUBCHEM_CACTVS_HBOND_ACCEPTOR>
2

> <PUBCHEM_CACTVS_HBOND_DONOR>
1

> <PUBCHEM_CACTVS_ROTATABLE_BOND>
2

> <PUBCHEM_CACTVS_SUBSKEYS>
AAADcYBCMAAAAAAAAAAAAAAAAAAAAAAAAAAAAAAAAAAAAAAAAAAAHgAQAAAAAACggAICCABABAAIAAAAGAAAAAAAAAAAAAAAAAEAAAAAAAAIAAAAAAAAAAAAAAAAAAAAAAAAAAAAAAAAAAAAAAAAAAAAAA==

> <PUBCHEM_IUPAC_OPENEYE_NAME>
ethyl carbamate

> <PUBCHEM_IUPAC_CAS_NAME>
carbamic acid ethyl ester

> <PUBCHEM_IUPAC_NAME>
ethyl carbamate

> <PUBCHEM_IUPAC_SYSTEMATIC_NAME>
ethyl carbamate

> <PUBCHEM_IUPAC_TRADITIONAL_NAME>
urethan

> <PUBCHEM_IUPAC_INCHI>
InChI=1S/C3H7NO2/c1-2-6-3(4)5/h2H2,1H3,(H2,4,5)

> <PUBCHEM_IUPAC_INCHIKEY>
JOYRKODLDBILNP-UHFFFAOYSA-N

> <PUBCHEM_XLOGP3>
-0.2

> <PUBCHEM_EXACT_MASS>
89.047678

> <PUBCHEM_MOLECULAR_FORMULA>
C3H7NO2

> <PUBCHEM_MOLECULAR_WEIGHT>
89.09318

> <PUBCHEM_OPENEYE_CAN_SMILES>
CCOC(=O)N

> <PUBCHEM_OPENEYE_ISO_SMILES>
CCOC(=O)N

> <PUBCHEM_CACTVS_TPSA>
52.3

> <PUBCHEM_MONOISOTOPIC_WEIGHT>
89.047678

> <PUBCHEM_TOTAL_CHARGE>
0

> <PUBCHEM_HEAVY_ATOM_COUNT>
6

> <PUBCHEM_ATOM_DEF_STEREO_COUNT>
0

> <PUBCHEM_ATOM_UDEF_STEREO_COUNT>
0

> <PUBCHEM_BOND_DEF_STEREO_COUNT>
0

> <PUBCHEM_BOND_UDEF_STEREO_COUNT>
0

> <PUBCHEM_ISOTOPIC_ATOM_COUNT>
0

> <PUBCHEM_COMPONENT_COUNT>
1

> <PUBCHEM_CACTVS_TAUTO_COUNT>
2

> <PUBCHEM_COORDINATE_TYPE>
1
5
255

> <DRUG_ID>
w81

> <DRUG_NAME>
Urethane

$$$$
4199
  CDK     0927151942
null
 44 46  0  0  0  0  0  0  0  0999 V2000
    2.8660   -4.0000    0.0000 O   0  0  0  0  0  0  0  0  0  0  0  0
    2.8660   -2.0000    0.0000 N   0  0  0  0  0  0  0  0  0  0  0  0
    3.7320    0.5000    0.0000 N   0  0  0  0  0  0  0  0  0  0  0  0
    5.4641    0.5000    0.0000 N   0  0  0  0  0  0  0  0  0  0  0  0
    6.3301    1.0000    0.0000 N   0  0  0  0  0  0  0  0  0  0  0  0
    3.7320   -2.5000    0.0000 C   0  0  0  0  0  0  0  0  0  0  0  0
    2.0000   -2.5000    0.0000 C   0  0  0  0  0  0  0  0  0  0  0  0
    2.8660   -1.0000    0.0000 C   0  0  0  0  0  0  0  0  0  0  0  0
    3.7320   -3.5000    0.0000 C   0  0  0  0  0  0  0  0  0  0  0  0
    2.0000   -3.5000    0.0000 C   0  0  0  0  0  0  0  0  0  0  0  0
    3.7320   -0.5000    0.0000 C   0  0  0  0  0  0  0  0  0  0  0  0
    4.5981    1.0000    0.0000 C   0  0  0  0  0  0  0  0  0  0  0  0
    4.5981    2.0000    0.0000 C   0  0  0  0  0  0  0  0  0  0  0  0
    5.4641    2.5000    0.0000 C   0  0  0  0  0  0  0  0  0  0  0  0
    6.3301    2.0000    0.0000 C   0  0  0  0  0  0  0  0  0  0  0  0
    3.7320    2.5000    0.0000 C   0  0  0  0  0  0  0  0  0  0  0  0
    7.1962    2.5000    0.0000 C   0  0  0  0  0  0  0  0  0  0  0  0
    8.0622    2.0000    0.0000 C   0  0  0  0  0  0  0  0  0  0  0  0
    7.1962    3.5000    0.0000 C   0  0  0  0  0  0  0  0  0  0  0  0
    8.9282    2.5000    0.0000 C   0  0  0  0  0  0  0  0  0  0  0  0
    8.0622    4.0000    0.0000 C   0  0  0  0  0  0  0  0  0  0  0  0
    8.9282    3.5000    0.0000 C   0  0  0  0  0  0  0  0  0  0  0  0
    4.3426   -2.6077    0.0000 H   0  0  0  0  0  0  0  0  0  0  0  0
    3.9441   -1.9174    0.0000 H   0  0  0  0  0  0  0  0  0  0  0  0
    1.7880   -1.9174    0.0000 H   0  0  0  0  0  0  0  0  0  0  0  0
    1.3894   -2.6077    0.0000 H   0  0  0  0  0  0  0  0  0  0  0  0
    2.6540   -0.4174    0.0000 H   0  0  0  0  0  0  0  0  0  0  0  0
    2.2554   -1.1077    0.0000 H   0  0  0  0  0  0  0  0  0  0  0  0
    3.9441   -4.0826    0.0000 H   0  0  0  0  0  0  0  0  0  0  0  0
    4.3426   -3.3923    0.0000 H   0  0  0  0  0  0  0  0  0  0  0  0
    1.3894   -3.3923    0.0000 H   0  0  0  0  0  0  0  0  0  0  0  0
    1.7880   -4.0826    0.0000 H   0  0  0  0  0  0  0  0  0  0  0  0
    3.9441   -1.0826    0.0000 H   0  0  0  0  0  0  0  0  0  0  0  0
    4.3426   -0.3923    0.0000 H   0  0  0  0  0  0  0  0  0  0  0  0
    3.1951    0.8100    0.0000 H   0  0  0  0  0  0  0  0  0  0  0  0
    5.4641    3.1200    0.0000 H   0  0  0  0  0  0  0  0  0  0  0  0
    4.0420    3.0369    0.0000 H   0  0  0  0  0  0  0  0  0  0  0  0
    3.1951    2.8100    0.0000 H   0  0  0  0  0  0  0  0  0  0  0  0
    3.4220    1.9631    0.0000 H   0  0  0  0  0  0  0  0  0  0  0  0
    8.0622    1.3800    0.0000 H   0  0  0  0  0  0  0  0  0  0  0  0
    6.6592    3.8100    0.0000 H   0  0  0  0  0  0  0  0  0  0  0  0
    9.4651    2.1900    0.0000 H   0  0  0  0  0  0  0  0  0  0  0  0
    8.0622    4.6200    0.0000 H   0  0  0  0  0  0  0  0  0  0  0  0
    9.4651    3.8100    0.0000 H   0  0  0  0  0  0  0  0  0  0  0  0
  1  9  1  0  0  0  0 
  1 10  1  0  0  0  0 
  2  6  1  0  0  0  0 
  2  7  1  0  0  0  0 
  2  8  1  0  0  0  0 
  3 11  1  0  0  0  0 
  3 12  1  0  0  0  0 
  3 35  1  0  0  0  0 
  4  5  1  0  0  0  0 
  4 12  2  0  0  0  0 
  5 15  2  0  0  0  0 
  6  9  1  0  0  0  0 
  6 23  1  0  0  0  0 
  6 24  1  0  0  0  0 
  7 10  1  0  0  0  0 
  7 25  1  0  0  0  0 
  7 26  1  0  0  0  0 
  8 11  1  0  0  0  0 
  8 27  1  0  0  0  0 
  8 28  1  0  0  0  0 
  9 29  1  0  0  0  0 
  9 30  1  0  0  0  0 
 10 31  1  0  0  0  0 
 10 32  1  0  0  0  0 
 11 33  1  0  0  0  0 
 11 34  1  0  0  0  0 
 12 13  1  0  0  0  0 
 13 14  2  0  0  0  0 
 13 16  1  0  0  0  0 
 14 15  1  0  0  0  0 
 14 36  1  0  0  0  0 
 15 17  1  0  0  0  0 
 16 37  1  0  0  0  0 
 16 38  1  0  0  0  0 
 16 39  1  0  0  0  0 
 17 18  2  0  0  0  0 
 17 19  1  0  0  0  0 
 18 20  1  0  0  0  0 
 18 40  1  0  0  0  0 
 19 21  2  0  0  0  0 
 19 41  1  0  0  0  0 
 20 22  2  0  0  0  0 
 20 42  1  0  0  0  0 
 21 22  1  0  0  0  0 
 21 43  1  0  0  0  0 
 22 44  1  0  0  0  0 
M  END
> <cdk:Title>
4199

> <cdk:Remark>
null

> <PUBCHEM_COMPOUND_CID>
4199

> <PUBCHEM_COMPOUND_CANONICALIZED>
1

> <PUBCHEM_CACTVS_COMPLEXITY>
316

> <PUBCHEM_CACTVS_HBOND_ACCEPTOR>
5

> <PUBCHEM_CACTVS_HBOND_DONOR>
1

> <PUBCHEM_CACTVS_ROTATABLE_BOND>
5

> <PUBCHEM_CACTVS_SUBSKEYS>
AAADceB7oAAAAAAAAAAAAAAAAAAAAAAAAAA8WIAAAAAAAAABwAAAHgAYAAAADAjhngYzsJPABACiAyZiYACSBAIhAgAdmKA4ZJiKYKLAmZGXoAhwmALYyAcQgMAOAAAAAAAAAAAAAAAAAAAAAAAAAAAAAA==

> <PUBCHEM_IUPAC_OPENEYE_NAME>
4-methyl-N-(2-morpholinoethyl)-6-phenyl-pyridazin-3-amine

> <PUBCHEM_IUPAC_CAS_NAME>
4-methyl-N-[2-(4-morpholinyl)ethyl]-6-phenyl-3-pyridazinamine

> <PUBCHEM_IUPAC_NAME>
4-methyl-N-(2-morpholin-4-ylethyl)-6-phenylpyridazin-3-amine

> <PUBCHEM_IUPAC_SYSTEMATIC_NAME>
4-methyl-N-(2-morpholin-4-ylethyl)-6-phenyl-pyridazin-3-amine

> <PUBCHEM_IUPAC_TRADITIONAL_NAME>
(4-methyl-6-phenyl-pyridazin-3-yl)-(2-morpholinoethyl)amine

> <PUBCHEM_IUPAC_INCHI>
InChI=1S/C17H22N4O/c1-14-13-16(15-5-3-2-4-6-15)19-20-17(14)18-7-8-21-9-11-22-12-10-21/h2-6,13H,7-12H2,1H3,(H,18,20)

> <PUBCHEM_IUPAC_INCHIKEY>
LDMWSLGGVTVJPG-UHFFFAOYSA-N

> <PUBCHEM_XLOGP3>
2

> <PUBCHEM_EXACT_MASS>
298.179361

> <PUBCHEM_MOLECULAR_FORMULA>
C17H22N4O

> <PUBCHEM_MOLECULAR_WEIGHT>
298.38278

> <PUBCHEM_OPENEYE_CAN_SMILES>
CC1=CC(=NN=C1NCCN2CCOCC2)C3=CC=CC=C3

> <PUBCHEM_OPENEYE_ISO_SMILES>
CC1=CC(=NN=C1NCCN2CCOCC2)C3=CC=CC=C3

> <PUBCHEM_CACTVS_TPSA>
50.3

> <PUBCHEM_MONOISOTOPIC_WEIGHT>
298.179361

> <PUBCHEM_TOTAL_CHARGE>
0

> <PUBCHEM_HEAVY_ATOM_COUNT>
22

> <PUBCHEM_ATOM_DEF_STEREO_COUNT>
0

> <PUBCHEM_ATOM_UDEF_STEREO_COUNT>
0

> <PUBCHEM_BOND_DEF_STEREO_COUNT>
0

> <PUBCHEM_BOND_UDEF_STEREO_COUNT>
0

> <PUBCHEM_ISOTOPIC_ATOM_COUNT>
0

> <PUBCHEM_COMPONENT_COUNT>
1

> <PUBCHEM_CACTVS_TAUTO_COUNT>
2

> <PUBCHEM_COORDINATE_TYPE>
1
5
255

> <PUBCHEM_BONDANNOTATIONS>
12  13  8
13  14  8
14  15  8
17  18  8
17  19  8
18  20  8
19  21  8
20  22  8
21  22  8
4  12  8
4  5  8
5  15  8

> <DRUG_ID>
w82

> <DRUG_NAME>
Minaprine

$$$$
14130
  CDK     0927151942
null
 33 33  0  0  0  0  0  0  0  0999 V2000
    4.5981    4.0950    0.0000 O   0  0  0  0  0  0  0  0  0  0  0  0
    2.8660   -2.9050    0.0000 O   0  0  0  0  0  0  0  0  0  0  0  0
    4.5981    1.0950    0.0000 O   0  0  0  0  0  0  0  0  0  0  0  0
    2.8660    1.0950    0.0000 N   0  0  0  0  0  0  0  0  0  0  0  0
    4.5981    3.0950    0.0000 C   0  0  3  0  0  0  0  0  0  0  0  0
    3.7320    2.5950    0.0000 C   0  0  0  0  0  0  0  0  0  0  0  0
    3.7320    1.5950    0.0000 C   0  0  0  0  0  0  0  0  0  0  0  0
    2.8660    0.0950    0.0000 C   0  0  0  0  0  0  0  0  0  0  0  0
    5.4641    2.5950    0.0000 C   0  0  0  0  0  0  0  0  0  0  0  0
    2.0000   -0.4050    0.0000 C   0  0  0  0  0  0  0  0  0  0  0  0
    3.7320   -0.4050    0.0000 C   0  0  0  0  0  0  0  0  0  0  0  0
    2.8660   -1.9050    0.0000 C   0  0  0  0  0  0  0  0  0  0  0  0
    2.0000   -1.4050    0.0000 C   0  0  0  0  0  0  0  0  0  0  0  0
    3.7320   -1.4050    0.0000 C   0  0  0  0  0  0  0  0  0  0  0  0
    2.0000   -3.4050    0.0000 C   0  0  0  0  0  0  0  0  0  0  0  0
    2.0000   -4.4050    0.0000 C   0  0  0  0  0  0  0  0  0  0  0  0
    5.1350    3.4050    0.0000 H   0  0  0  0  0  0  0  0  0  0  0  0
    3.5200    3.1776    0.0000 H   0  0  0  0  0  0  0  0  0  0  0  0
    3.1215    2.4873    0.0000 H   0  0  0  0  0  0  0  0  0  0  0  0
    5.1541    2.0581    0.0000 H   0  0  0  0  0  0  0  0  0  0  0  0
    6.0010    2.2850    0.0000 H   0  0  0  0  0  0  0  0  0  0  0  0
    5.7741    3.1319    0.0000 H   0  0  0  0  0  0  0  0  0  0  0  0
    2.3291    1.4050    0.0000 H   0  0  0  0  0  0  0  0  0  0  0  0
    1.4631   -0.0950    0.0000 H   0  0  0  0  0  0  0  0  0  0  0  0
    4.2690   -0.0950    0.0000 H   0  0  0  0  0  0  0  0  0  0  0  0
    1.4631   -1.7150    0.0000 H   0  0  0  0  0  0  0  0  0  0  0  0
    4.2690   -1.7150    0.0000 H   0  0  0  0  0  0  0  0  0  0  0  0
    5.1350    4.4050    0.0000 H   0  0  0  0  0  0  0  0  0  0  0  0
    1.7880   -2.8224    0.0000 H   0  0  0  0  0  0  0  0  0  0  0  0
    1.3894   -3.5127    0.0000 H   0  0  0  0  0  0  0  0  0  0  0  0
    1.3800   -4.4050    0.0000 H   0  0  0  0  0  0  0  0  0  0  0  0
    2.0000   -5.0250    0.0000 H   0  0  0  0  0  0  0  0  0  0  0  0
    2.6200   -4.4050    0.0000 H   0  0  0  0  0  0  0  0  0  0  0  0
  1  5  1  0  0  0  0 
  1 28  1  0  0  0  0 
  2 12  1  0  0  0  0 
  2 15  1  0  0  0  0 
  3  7  2  0  0  0  0 
  4  7  1  0  0  0  0 
  4  8  1  0  0  0  0 
  4 23  1  0  0  0  0 
  5  6  1  0  0  0  0 
  5  9  1  0  0  0  0 
  5 17  1  0  0  0  0 
  6  7  1  0  0  0  0 
  6 18  1  0  0  0  0 
  6 19  1  0  0  0  0 
  8 10  2  0  0  0  0 
  8 11  1  0  0  0  0 
  9 20  1  0  0  0  0 
  9 21  1  0  0  0  0 
  9 22  1  0  0  0  0 
 10 13  1  0  0  0  0 
 10 24  1  0  0  0  0 
 11 14  2  0  0  0  0 
 11 25  1  0  0  0  0 
 12 13  2  0  0  0  0 
 12 14  1  0  0  0  0 
 13 26  1  0  0  0  0 
 14 27  1  0  0  0  0 
 15 16  1  0  0  0  0 
 15 29  1  0  0  0  0 
 15 30  1  0  0  0  0 
 16 31  1  0  0  0  0 
 16 32  1  0  0  0  0 
 16 33  1  0  0  0  0 
M  END
> <cdk:Title>
14130

> <cdk:Remark>
null

> <PUBCHEM_COMPOUND_CID>
14130

> <PUBCHEM_COMPOUND_CANONICALIZED>
1

> <PUBCHEM_CACTVS_COMPLEXITY>
212

> <PUBCHEM_CACTVS_HBOND_ACCEPTOR>
3

> <PUBCHEM_CACTVS_HBOND_DONOR>
2

> <PUBCHEM_CACTVS_ROTATABLE_BOND>
5

> <PUBCHEM_CACTVS_SUBSKEYS>
AAADceByMAAAAAAAAAAAAAAAAAAAAAAAAAAwAAAAAAAAAAABAAAAHgAQCAAACByhkAIyxoLABgCIACVSUACCCAAhIgAIiAEGbIgMNjbEsZuGeCjm9BHI6AewQAAAAEAAAAAAAAAAgAAAAAAAAAAAAAAAAA==

> <PUBCHEM_IUPAC_OPENEYE_NAME>
N-(4-ethoxyphenyl)-3-hydroxy-butanamide

> <PUBCHEM_IUPAC_CAS_NAME>
N-(4-ethoxyphenyl)-3-hydroxybutanamide

> <PUBCHEM_IUPAC_NAME>
N-(4-ethoxyphenyl)-3-hydroxybutanamide

> <PUBCHEM_IUPAC_SYSTEMATIC_NAME>
N-(4-ethoxyphenyl)-3-oxidanyl-butanamide

> <PUBCHEM_IUPAC_TRADITIONAL_NAME>
3-hydroxy-N-p-phenetyl-butyramide

> <PUBCHEM_IUPAC_INCHI>
InChI=1S/C12H17NO3/c1-3-16-11-6-4-10(5-7-11)13-12(15)8-9(2)14/h4-7,9,14H,3,8H2,1-2H3,(H,13,15)

> <PUBCHEM_IUPAC_INCHIKEY>
LIAWQASKBFCRNR-UHFFFAOYSA-N

> <PUBCHEM_XLOGP3>
1.8

> <PUBCHEM_EXACT_MASS>
223.120843

> <PUBCHEM_MOLECULAR_FORMULA>
C12H17NO3

> <PUBCHEM_MOLECULAR_WEIGHT>
223.26828

> <PUBCHEM_OPENEYE_CAN_SMILES>
CCOC1=CC=C(C=C1)NC(=O)CC(C)O

> <PUBCHEM_OPENEYE_ISO_SMILES>
CCOC1=CC=C(C=C1)NC(=O)CC(C)O

> <PUBCHEM_CACTVS_TPSA>
58.6

> <PUBCHEM_MONOISOTOPIC_WEIGHT>
223.120843

> <PUBCHEM_TOTAL_CHARGE>
0

> <PUBCHEM_HEAVY_ATOM_COUNT>
16

> <PUBCHEM_ATOM_DEF_STEREO_COUNT>
0

> <PUBCHEM_ATOM_UDEF_STEREO_COUNT>
1

> <PUBCHEM_BOND_DEF_STEREO_COUNT>
0

> <PUBCHEM_BOND_UDEF_STEREO_COUNT>
0

> <PUBCHEM_ISOTOPIC_ATOM_COUNT>
0

> <PUBCHEM_COMPONENT_COUNT>
1

> <PUBCHEM_CACTVS_TAUTO_COUNT>
3

> <PUBCHEM_COORDINATE_TYPE>
1
5
255

> <PUBCHEM_BONDANNOTATIONS>
5  1  3
10  13  8
11  14  8
12  13  8
12  14  8
8  10  8
8  11  8

> <DRUG_ID>
w83

> <DRUG_NAME>
Bucetin

$$$$
119607
  CDK     0927151942
null
 36 38  0  0  0  0  0  0  0  0999 V2000
    3.7601   -2.1144    0.0000 S   0  0  0  0  0  0  0  0  0  0  0  0
    3.2601    3.4244    0.0000 O   0  0  0  0  0  0  0  0  0  0  0  0
    2.7601   -2.1144    0.0000 O   0  0  0  0  0  0  0  0  0  0  0  0
    4.7601   -2.1144    0.0000 O   0  0  0  0  0  0  0  0  0  0  0  0
    4.2601    3.4244    0.0000 N   0  0  0  0  0  0  0  0  0  0  0  0
    3.7601   -3.1144    0.0000 N   0  0  0  0  0  0  0  0  0  0  0  0
    3.7601    1.8856    0.0000 C   0  0  0  0  0  0  0  0  0  0  0  0
    3.7601    0.8856    0.0000 C   0  0  0  0  0  0  0  0  0  0  0  0
    4.5691    2.4734    0.0000 C   0  0  0  0  0  0  0  0  0  0  0  0
    2.9511    2.4734    0.0000 C   0  0  0  0  0  0  0  0  0  0  0  0
    3.7601   -1.1144    0.0000 C   0  0  0  0  0  0  0  0  0  0  0  0
    2.8940    0.3856    0.0000 C   0  0  0  0  0  0  0  0  0  0  0  0
    4.6261    0.3856    0.0000 C   0  0  0  0  0  0  0  0  0  0  0  0
    5.5202    2.1644    0.0000 C   0  0  0  0  0  0  0  0  0  0  0  0
    2.8940   -0.6144    0.0000 C   0  0  0  0  0  0  0  0  0  0  0  0
    4.6261   -0.6144    0.0000 C   0  0  0  0  0  0  0  0  0  0  0  0
    2.0000    2.1644    0.0000 C   0  0  0  0  0  0  0  0  0  0  0  0
    5.7281    1.1862    0.0000 C   0  0  0  0  0  0  0  0  0  0  0  0
    6.2633    2.8335    0.0000 C   0  0  0  0  0  0  0  0  0  0  0  0
    6.6791    0.8772    0.0000 C   0  0  0  0  0  0  0  0  0  0  0  0
    7.2144    2.5245    0.0000 C   0  0  0  0  0  0  0  0  0  0  0  0
    7.4223    1.5463    0.0000 C   0  0  0  0  0  0  0  0  0  0  0  0
    2.3571    0.6956    0.0000 H   0  0  0  0  0  0  0  0  0  0  0  0
    5.1630    0.6956    0.0000 H   0  0  0  0  0  0  0  0  0  0  0  0
    2.3571   -0.9244    0.0000 H   0  0  0  0  0  0  0  0  0  0  0  0
    5.1630   -0.9244    0.0000 H   0  0  0  0  0  0  0  0  0  0  0  0
    1.8084    2.7540    0.0000 H   0  0  0  0  0  0  0  0  0  0  0  0
    1.4103    1.9728    0.0000 H   0  0  0  0  0  0  0  0  0  0  0  0
    2.1916    1.5747    0.0000 H   0  0  0  0  0  0  0  0  0  0  0  0
    5.2673    0.7713    0.0000 H   0  0  0  0  0  0  0  0  0  0  0  0
    6.1344    3.4399    0.0000 H   0  0  0  0  0  0  0  0  0  0  0  0
    6.8080    0.2707    0.0000 H   0  0  0  0  0  0  0  0  0  0  0  0
    7.6751    2.9393    0.0000 H   0  0  0  0  0  0  0  0  0  0  0  0
    8.0119    1.3547    0.0000 H   0  0  0  0  0  0  0  0  0  0  0  0
    3.2231   -3.4244    0.0000 H   0  0  0  0  0  0  0  0  0  0  0  0
    4.2970   -3.4244    0.0000 H   0  0  0  0  0  0  0  0  0  0  0  0
  1  3  2  0  0  0  0 
  1  4  2  0  0  0  0 
  1  6  1  0  0  0  0 
  1 11  1  0  0  0  0 
  2  5  1  0  0  0  0 
  2 10  1  0  0  0  0 
  5  9  2  0  0  0  0 
  6 35  1  0  0  0  0 
  6 36  1  0  0  0  0 
  7  8  1  0  0  0  0 
  7  9  1  0  0  0  0 
  7 10  2  0  0  0  0 
  8 12  2  0  0  0  0 
  8 13  1  0  0  0  0 
  9 14  1  0  0  0  0 
 10 17  1  0  0  0  0 
 11 15  2  0  0  0  0 
 11 16  1  0  0  0  0 
 12 15  1  0  0  0  0 
 12 23  1  0  0  0  0 
 13 16  2  0  0  0  0 
 13 24  1  0  0  0  0 
 14 18  2  0  0  0  0 
 14 19  1  0  0  0  0 
 15 25  1  0  0  0  0 
 16 26  1  0  0  0  0 
 17 27  1  0  0  0  0 
 17 28  1  0  0  0  0 
 17 29  1  0  0  0  0 
 18 20  1  0  0  0  0 
 18 30  1  0  0  0  0 
 19 21  2  0  0  0  0 
 19 31  1  0  0  0  0 
 20 22  2  0  0  0  0 
 20 32  1  0  0  0  0 
 21 22  1  0  0  0  0 
 21 33  1  0  0  0  0 
 22 34  1  0  0  0  0 
M  END
> <cdk:Title>
119607

> <cdk:Remark>
null

> <PUBCHEM_COMPOUND_CID>
119607

> <PUBCHEM_COMPOUND_CANONICALIZED>
1

> <PUBCHEM_CACTVS_COMPLEXITY>
462

> <PUBCHEM_CACTVS_HBOND_ACCEPTOR>
5

> <PUBCHEM_CACTVS_HBOND_DONOR>
1

> <PUBCHEM_CACTVS_ROTATABLE_BOND>
3

> <PUBCHEM_CACTVS_SUBSKEYS>
AAADccB7MABAAAAAAAAAAAAAAAAAAWAAAAAwYAAAAAAAAAAB0AAAHgQUQAAADAyB3gAyhZAQAAKpA6RyQnDCABAkIAAomDkkTNoIJrqAlZOAMYBmwBkIyUeYyOCOkAAAAAAAAAAgAAAAAAAAAAAAAAAAAA==

> <PUBCHEM_IUPAC_OPENEYE_NAME>
4-(5-methyl-3-phenyl-isoxazol-4-yl)benzenesulfonamide

> <PUBCHEM_IUPAC_CAS_NAME>
4-(5-methyl-3-phenyl-4-isoxazolyl)benzenesulfonamide

> <PUBCHEM_IUPAC_NAME>
4-(5-methyl-3-phenyl-1,2-oxazol-4-yl)benzenesulfonamide

> <PUBCHEM_IUPAC_SYSTEMATIC_NAME>
4-(5-methyl-3-phenyl-1,2-oxazol-4-yl)benzenesulfonamide

> <PUBCHEM_IUPAC_TRADITIONAL_NAME>
4-(5-methyl-3-phenyl-isoxazol-4-yl)benzenesulfonamide

> <PUBCHEM_IUPAC_INCHI>
InChI=1S/C16H14N2O3S/c1-11-15(12-7-9-14(10-8-12)22(17,19)20)16(18-21-11)13-5-3-2-4-6-13/h2-10H,1H3,(H2,17,19,20)

> <PUBCHEM_IUPAC_INCHIKEY>
LNPDTQAFDNKSHK-UHFFFAOYSA-N

> <PUBCHEM_XLOGP3_AA>
2.6

> <PUBCHEM_EXACT_MASS>
314.072513

> <PUBCHEM_MOLECULAR_FORMULA>
C16H14N2O3S

> <PUBCHEM_MOLECULAR_WEIGHT>
314.35896

> <PUBCHEM_OPENEYE_CAN_SMILES>
CC1=C(C(=NO1)C2=CC=CC=C2)C3=CC=C(C=C3)S(=O)(=O)N

> <PUBCHEM_OPENEYE_ISO_SMILES>
CC1=C(C(=NO1)C2=CC=CC=C2)C3=CC=C(C=C3)S(=O)(=O)N

> <PUBCHEM_CACTVS_TPSA>
94.6

> <PUBCHEM_MONOISOTOPIC_WEIGHT>
314.072513

> <PUBCHEM_TOTAL_CHARGE>
0

> <PUBCHEM_HEAVY_ATOM_COUNT>
22

> <PUBCHEM_ATOM_DEF_STEREO_COUNT>
0

> <PUBCHEM_ATOM_UDEF_STEREO_COUNT>
0

> <PUBCHEM_BOND_DEF_STEREO_COUNT>
0

> <PUBCHEM_BOND_UDEF_STEREO_COUNT>
0

> <PUBCHEM_ISOTOPIC_ATOM_COUNT>
0

> <PUBCHEM_COMPONENT_COUNT>
1

> <PUBCHEM_CACTVS_TAUTO_COUNT>
1

> <PUBCHEM_COORDINATE_TYPE>
1
5
255

> <PUBCHEM_BONDANNOTATIONS>
11  15  8
11  16  8
12  15  8
13  16  8
14  18  8
14  19  8
18  20  8
19  21  8
2  10  8
2  5  8
20  22  8
21  22  8
5  9  8
7  10  8
7  9  8
8  12  8
8  13  8

> <DRUG_ID>
w84

> <DRUG_NAME>
Valdecoxib

$$$$
3343
  CDK     0927151942
null
 43 44  0  0  0  0  0  0  0  0999 V2000
    2.8660   -0.5000    0.0000 O   0  0  0  0  0  0  0  0  0  0  0  0
    5.4641   -4.0000    0.0000 O   0  0  0  0  0  0  0  0  0  0  0  0
    2.0000   -4.0000    0.0000 O   0  0  0  0  0  0  0  0  0  0  0  0
    8.9282    4.0000    0.0000 O   0  0  0  0  0  0  0  0  0  0  0  0
    4.5981    0.5000    0.0000 N   0  0  0  0  0  0  0  0  0  0  0  0
    5.4641    1.0000    0.0000 C   0  0  3  0  0  0  0  0  0  0  0  0
    5.4641    2.0000    0.0000 C   0  0  0  0  0  0  0  0  0  0  0  0
    4.5981   -0.5000    0.0000 C   0  0  0  0  0  0  0  0  0  0  0  0
    3.7320   -1.0000    0.0000 C   0  0  3  0  0  0  0  0  0  0  0  0
    6.3301    0.5000    0.0000 C   0  0  0  0  0  0  0  0  0  0  0  0
    6.3301    2.5000    0.0000 C   0  0  0  0  0  0  0  0  0  0  0  0
    3.7320   -2.0000    0.0000 C   0  0  0  0  0  0  0  0  0  0  0  0
    7.1962    2.0000    0.0000 C   0  0  0  0  0  0  0  0  0  0  0  0
    6.3301    3.5000    0.0000 C   0  0  0  0  0  0  0  0  0  0  0  0
    2.8660   -2.5000    0.0000 C   0  0  0  0  0  0  0  0  0  0  0  0
    4.5981   -2.5000    0.0000 C   0  0  0  0  0  0  0  0  0  0  0  0
    4.5981   -3.5000    0.0000 C   0  0  0  0  0  0  0  0  0  0  0  0
    2.8660   -3.5000    0.0000 C   0  0  0  0  0  0  0  0  0  0  0  0
    8.0622    2.5000    0.0000 C   0  0  0  0  0  0  0  0  0  0  0  0
    7.1962    4.0000    0.0000 C   0  0  0  0  0  0  0  0  0  0  0  0
    8.0622    3.5000    0.0000 C   0  0  0  0  0  0  0  0  0  0  0  0
    3.7320   -4.0000    0.0000 C   0  0  0  0  0  0  0  0  0  0  0  0
    5.4641    0.3800    0.0000 H   0  0  0  0  0  0  0  0  0  0  0  0
    5.2520    2.5826    0.0000 H   0  0  0  0  0  0  0  0  0  0  0  0
    4.8535    1.8923    0.0000 H   0  0  0  0  0  0  0  0  0  0  0  0
    4.8101   -1.0826    0.0000 H   0  0  0  0  0  0  0  0  0  0  0  0
    5.2087   -0.3923    0.0000 H   0  0  0  0  0  0  0  0  0  0  0  0
    4.0611    0.8100    0.0000 H   0  0  0  0  0  0  0  0  0  0  0  0
    3.7320   -0.3800    0.0000 H   0  0  0  0  0  0  0  0  0  0  0  0
    6.0201   -0.0369    0.0000 H   0  0  0  0  0  0  0  0  0  0  0  0
    6.8671    0.1900    0.0000 H   0  0  0  0  0  0  0  0  0  0  0  0
    6.6401    1.0369    0.0000 H   0  0  0  0  0  0  0  0  0  0  0  0
    7.1962    1.3800    0.0000 H   0  0  0  0  0  0  0  0  0  0  0  0
    5.7932    3.8100    0.0000 H   0  0  0  0  0  0  0  0  0  0  0  0
    2.3291   -2.1900    0.0000 H   0  0  0  0  0  0  0  0  0  0  0  0
    5.1350   -2.1900    0.0000 H   0  0  0  0  0  0  0  0  0  0  0  0
    2.8660    0.1200    0.0000 H   0  0  0  0  0  0  0  0  0  0  0  0
    8.5991    2.1900    0.0000 H   0  0  0  0  0  0  0  0  0  0  0  0
    7.1962    4.6200    0.0000 H   0  0  0  0  0  0  0  0  0  0  0  0
    3.7320   -4.6200    0.0000 H   0  0  0  0  0  0  0  0  0  0  0  0
    5.4641   -4.6200    0.0000 H   0  0  0  0  0  0  0  0  0  0  0  0
    2.0000   -4.6200    0.0000 H   0  0  0  0  0  0  0  0  0  0  0  0
    8.9282    4.6200    0.0000 H   0  0  0  0  0  0  0  0  0  0  0  0
  1  9  1  0  0  0  0 
  1 37  1  0  0  0  0 
  2 17  1  0  0  0  0 
  2 41  1  0  0  0  0 
  3 18  1  0  0  0  0 
  3 42  1  0  0  0  0 
  4 21  1  0  0  0  0 
  4 43  1  0  0  0  0 
  5  6  1  0  0  0  0 
  5  8  1  0  0  0  0 
  5 28  1  0  0  0  0 
  6  7  1  0  0  0  0 
  6 10  1  0  0  0  0 
  6 23  1  0  0  0  0 
  7 11  1  0  0  0  0 
  7 24  1  0  0  0  0 
  7 25  1  0  0  0  0 
  8  9  1  0  0  0  0 
  8 26  1  0  0  0  0 
  8 27  1  0  0  0  0 
  9 12  1  0  0  0  0 
  9 29  1  0  0  0  0 
 10 30  1  0  0  0  0 
 10 31  1  0  0  0  0 
 10 32  1  0  0  0  0 
 11 13  2  0  0  0  0 
 11 14  1  0  0  0  0 
 12 15  2  0  0  0  0 
 12 16  1  0  0  0  0 
 13 19  1  0  0  0  0 
 13 33  1  0  0  0  0 
 14 20  2  0  0  0  0 
 14 34  1  0  0  0  0 
 15 18  1  0  0  0  0 
 15 35  1  0  0  0  0 
 16 17  2  0  0  0  0 
 16 36  1  0  0  0  0 
 17 22  1  0  0  0  0 
 18 22  2  0  0  0  0 
 19 21  2  0  0  0  0 
 19 38  1  0  0  0  0 
 20 21  1  0  0  0  0 
 20 39  1  0  0  0  0 
 22 40  1  0  0  0  0 
M  END
> <cdk:Title>
3343

> <cdk:Remark>
null

> <PUBCHEM_COMPOUND_CID>
3343

> <PUBCHEM_COMPOUND_CANONICALIZED>
1

> <PUBCHEM_CACTVS_COMPLEXITY>
310

> <PUBCHEM_CACTVS_HBOND_ACCEPTOR>
5

> <PUBCHEM_CACTVS_HBOND_DONOR>
5

> <PUBCHEM_CACTVS_ROTATABLE_BOND>
6

> <PUBCHEM_CACTVS_SUBSKEYS>
AAADceB6OAAAAAAAAAAAAAAAAAAAAAAAAAAwYAAAAAAAAAABQAAAHgAQCAAADDzhmAYyBoLAAgCAAiBCAAACAAAgIAAIiIAOCIgKNyKCkROEcAAl0BWYmAfQ8LYOIAABCAAAAABAAAIQAAAAAAAAAAAAAA==

> <PUBCHEM_IUPAC_OPENEYE_NAME>
5-[1-hydroxy-2-[[2-(4-hydroxyphenyl)-1-methyl-ethyl]amino]ethyl]benzene-1,3-diol

> <PUBCHEM_IUPAC_CAS_NAME>
5-[1-hydroxy-2-[1-(4-hydroxyphenyl)propan-2-ylamino]ethyl]benzene-1,3-diol

> <PUBCHEM_IUPAC_NAME>
5-[1-hydroxy-2-[1-(4-hydroxyphenyl)propan-2-ylamino]ethyl]benzene-1,3-diol

> <PUBCHEM_IUPAC_SYSTEMATIC_NAME>
5-[2-[1-(4-hydroxyphenyl)propan-2-ylamino]-1-oxidanyl-ethyl]benzene-1,3-diol

> <PUBCHEM_IUPAC_TRADITIONAL_NAME>
5-[1-hydroxy-2-[[2-(4-hydroxyphenyl)-1-methyl-ethyl]amino]ethyl]resorcinol

> <PUBCHEM_IUPAC_INCHI>
InChI=1S/C17H21NO4/c1-11(6-12-2-4-14(19)5-3-12)18-10-17(22)13-7-15(20)9-16(21)8-13/h2-5,7-9,11,17-22H,6,10H2,1H3

> <PUBCHEM_IUPAC_INCHIKEY>
LSLYOANBFKQKPT-UHFFFAOYSA-N

> <PUBCHEM_XLOGP3_AA>
2

> <PUBCHEM_EXACT_MASS>
303.147058

> <PUBCHEM_MOLECULAR_FORMULA>
C17H21NO4

> <PUBCHEM_MOLECULAR_WEIGHT>
303.35294

> <PUBCHEM_OPENEYE_CAN_SMILES>
CC(CC1=CC=C(C=C1)O)NCC(C2=CC(=CC(=C2)O)O)O

> <PUBCHEM_OPENEYE_ISO_SMILES>
CC(CC1=CC=C(C=C1)O)NCC(C2=CC(=CC(=C2)O)O)O

> <PUBCHEM_CACTVS_TPSA>
93

> <PUBCHEM_MONOISOTOPIC_WEIGHT>
303.147058

> <PUBCHEM_TOTAL_CHARGE>
0

> <PUBCHEM_HEAVY_ATOM_COUNT>
22

> <PUBCHEM_ATOM_DEF_STEREO_COUNT>
0

> <PUBCHEM_ATOM_UDEF_STEREO_COUNT>
2

> <PUBCHEM_BOND_DEF_STEREO_COUNT>
0

> <PUBCHEM_BOND_UDEF_STEREO_COUNT>
0

> <PUBCHEM_ISOTOPIC_ATOM_COUNT>
0

> <PUBCHEM_COMPONENT_COUNT>
1

> <PUBCHEM_CACTVS_TAUTO_COUNT>
10

> <PUBCHEM_COORDINATE_TYPE>
1
5
255

> <PUBCHEM_BONDANNOTATIONS>
9  1  3
11  13  8
11  14  8
12  15  8
12  16  8
13  19  8
14  20  8
15  18  8
16  17  8
17  22  8
18  22  8
19  21  8
20  21  8
6  10  3

> <DRUG_ID>
w85

> <DRUG_NAME>
Fenoterol

$$$$
53359
  CDK     0927151942
null
 38 39  0  0  0  0  0  0  0  0999 V2000
    5.4747    1.3392    0.0000 S   0  0  0  0  0  0  0  0  0  0  0  0
    4.5981   -4.1853    0.0000 F   0  0  0  0  0  0  0  0  0  0  0  0
    3.5981   -3.1853    0.0000 F   0  0  0  0  0  0  0  0  0  0  0  0
    5.5981   -3.1853    0.0000 F   0  0  0  0  0  0  0  0  0  0  0  0
    2.8660   -2.1853    0.0000 O   0  0  0  0  0  0  0  0  0  0  0  0
    8.0437    3.8691    0.0000 O   0  0  0  0  0  0  0  0  0  0  0  0
    8.9270    2.3792    0.0000 O   0  0  0  0  0  0  0  0  0  0  0  0
    7.2067    1.3593    0.0000 N   0  0  0  0  0  0  0  0  0  0  0  0
    5.4641   -0.6853    0.0000 C   0  0  0  0  0  0  0  0  0  0  0  0
    5.4641   -1.6853    0.0000 C   0  0  0  0  0  0  0  0  0  0  0  0
    6.3580   -0.1506    0.0000 C   0  0  0  0  0  0  0  0  0  0  0  0
    4.5981   -2.1853    0.0000 C   0  0  0  0  0  0  0  0  0  0  0  0
    4.5981   -0.1853    0.0000 C   0  0  0  0  0  0  0  0  0  0  0  0
    3.7320   -1.6853    0.0000 C   0  0  0  0  0  0  0  0  0  0  0  0
    6.3580   -2.2200    0.0000 C   0  0  0  0  0  0  0  0  0  0  0  0
    7.2641   -0.6645    0.0000 C   0  0  0  0  0  0  0  0  0  0  0  0
    6.3465    0.8493    0.0000 C   0  0  0  0  0  0  0  0  0  0  0  0
    3.7320   -0.6853    0.0000 C   0  0  0  0  0  0  0  0  0  0  0  0
    7.2641   -1.7061    0.0000 C   0  0  0  0  0  0  0  0  0  0  0  0
    4.5981   -3.1853    0.0000 C   0  0  0  0  0  0  0  0  0  0  0  0
    7.1951    2.3592    0.0000 C   0  0  0  0  0  0  0  0  0  0  0  0
    8.0784    0.8693    0.0000 C   0  0  0  0  0  0  0  0  0  0  0  0
    8.0553    2.8692    0.0000 C   0  0  0  0  0  0  0  0  0  0  0  0
    2.0000   -1.6853    0.0000 C   0  0  0  0  0  0  0  0  0  0  0  0
    4.5981    0.4347    0.0000 H   0  0  0  0  0  0  0  0  0  0  0  0
    6.3509   -2.8399    0.0000 H   0  0  0  0  0  0  0  0  0  0  0  0
    7.7998   -0.3524    0.0000 H   0  0  0  0  0  0  0  0  0  0  0  0
    3.1951   -0.3753    0.0000 H   0  0  0  0  0  0  0  0  0  0  0  0
    7.7998   -2.0182    0.0000 H   0  0  0  0  0  0  0  0  0  0  0  0
    6.9763    2.9393    0.0000 H   0  0  0  0  0  0  0  0  0  0  0  0
    6.5858    2.2445    0.0000 H   0  0  0  0  0  0  0  0  0  0  0  0
    7.7746    0.3288    0.0000 H   0  0  0  0  0  0  0  0  0  0  0  0
    8.6189    0.5655    0.0000 H   0  0  0  0  0  0  0  0  0  0  0  0
    8.3822    1.4098    0.0000 H   0  0  0  0  0  0  0  0  0  0  0  0
    2.3100   -1.1484    0.0000 H   0  0  0  0  0  0  0  0  0  0  0  0
    1.4631   -1.3753    0.0000 H   0  0  0  0  0  0  0  0  0  0  0  0
    1.6900   -2.2222    0.0000 H   0  0  0  0  0  0  0  0  0  0  0  0
    8.5770    4.1853    0.0000 H   0  0  0  0  0  0  0  0  0  0  0  0
  1 17  2  0  0  0  0 
  2 20  1  0  0  0  0 
  3 20  1  0  0  0  0 
  4 20  1  0  0  0  0 
  5 14  1  0  0  0  0 
  5 24  1  0  0  0  0 
  6 23  1  0  0  0  0 
  6 38  1  0  0  0  0 
  7 23  2  0  0  0  0 
  8 17  1  0  0  0  0 
  8 21  1  0  0  0  0 
  8 22  1  0  0  0  0 
  9 10  2  0  0  0  0 
  9 11  1  0  0  0  0 
  9 13  1  0  0  0  0 
 10 12  1  0  0  0  0 
 10 15  1  0  0  0  0 
 11 16  2  0  0  0  0 
 11 17  1  0  0  0  0 
 12 14  2  0  0  0  0 
 12 20  1  0  0  0  0 
 13 18  2  0  0  0  0 
 13 25  1  0  0  0  0 
 14 18  1  0  0  0  0 
 15 19  2  0  0  0  0 
 15 26  1  0  0  0  0 
 16 19  1  0  0  0  0 
 16 27  1  0  0  0  0 
 18 28  1  0  0  0  0 
 19 29  1  0  0  0  0 
 21 23  1  0  0  0  0 
 21 30  1  0  0  0  0 
 21 31  1  0  0  0  0 
 22 32  1  0  0  0  0 
 22 33  1  0  0  0  0 
 22 34  1  0  0  0  0 
 24 35  1  0  0  0  0 
 24 36  1  0  0  0  0 
 24 37  1  0  0  0  0 
M  END
> <cdk:Title>
53359

> <cdk:Remark>
null

> <PUBCHEM_COMPOUND_CID>
53359

> <PUBCHEM_COMPOUND_CANONICALIZED>
1

> <PUBCHEM_CACTVS_COMPLEXITY>
486

> <PUBCHEM_CACTVS_HBOND_ACCEPTOR>
7

> <PUBCHEM_CACTVS_HBOND_DONOR>
1

> <PUBCHEM_CACTVS_ROTATABLE_BOND>
4

> <PUBCHEM_CACTVS_SUBSKEYS>
AAADccB6MYBAAAAAAAAAAAAAAAAAAAAAAAAwYAAAAAAAAADBUAAAHwQACAAADATB2BYyDsMABgCMAiDSCACCCAAgIAgIiACODIgOJiKEsTuEMChkwBGYqAeQwPAOoAADAAAYAABAAAYAADAAAAAAAAAAAA==

> <PUBCHEM_IUPAC_OPENEYE_NAME>
2-[[6-methoxy-5-(trifluoromethyl)naphthalene-1-carbothioyl]-methyl-amino]acetic acid

> <PUBCHEM_IUPAC_CAS_NAME>
2-[[[6-methoxy-5-(trifluoromethyl)-1-naphthalenyl]-sulfanylidenemethyl]-methylamino]acetic acid

> <PUBCHEM_IUPAC_NAME>
2-[[6-methoxy-5-(trifluoromethyl)naphthalene-1-carbothioyl]-methylamino]acetic acid

> <PUBCHEM_IUPAC_SYSTEMATIC_NAME>
2-[[6-methoxy-5-(trifluoromethyl)naphthalen-1-yl]carbothioyl-methyl-amino]ethanoic acid

> <PUBCHEM_IUPAC_TRADITIONAL_NAME>
2-[[6-methoxy-5-(trifluoromethyl)naphthalene-1-carbothioyl]-methyl-amino]acetic acid

> <PUBCHEM_IUPAC_INCHI>
InChI=1S/C16H14F3NO3S/c1-20(8-13(21)22)15(24)11-5-3-4-10-9(11)6-7-12(23-2)14(10)16(17,18)19/h3-7H,8H2,1-2H3,(H,21,22)

> <PUBCHEM_IUPAC_INCHIKEY>
LUBHDINQXIHVLS-UHFFFAOYSA-N

> <PUBCHEM_XLOGP3_AA>
3.7

> <PUBCHEM_EXACT_MASS>
357.064649

> <PUBCHEM_MOLECULAR_FORMULA>
C16H14F3NO3S

> <PUBCHEM_MOLECULAR_WEIGHT>
357.34747

> <PUBCHEM_OPENEYE_CAN_SMILES>
CN(CC(=O)O)C(=S)C1=CC=CC2=C1C=CC(=C2C(F)(F)F)OC

> <PUBCHEM_OPENEYE_ISO_SMILES>
CN(CC(=O)O)C(=S)C1=CC=CC2=C1C=CC(=C2C(F)(F)F)OC

> <PUBCHEM_CACTVS_TPSA>
81.9

> <PUBCHEM_MONOISOTOPIC_WEIGHT>
357.064649

> <PUBCHEM_TOTAL_CHARGE>
0

> <PUBCHEM_HEAVY_ATOM_COUNT>
24

> <PUBCHEM_ATOM_DEF_STEREO_COUNT>
0

> <PUBCHEM_ATOM_UDEF_STEREO_COUNT>
0

> <PUBCHEM_BOND_DEF_STEREO_COUNT>
0

> <PUBCHEM_BOND_UDEF_STEREO_COUNT>
0

> <PUBCHEM_ISOTOPIC_ATOM_COUNT>
0

> <PUBCHEM_COMPONENT_COUNT>
1

> <PUBCHEM_CACTVS_TAUTO_COUNT>
1

> <PUBCHEM_COORDINATE_TYPE>
1
5
255

> <PUBCHEM_BONDANNOTATIONS>
10  12  8
10  15  8
11  16  8
12  14  8
13  18  8
14  18  8
15  19  8
16  19  8
9  10  8
9  11  8
9  13  8

> <DRUG_ID>
w86

> <DRUG_NAME>
Tolrestat

$$$$
5311399
  CDK     0927151942
null
104109  0  0  0  0  0  0  0  0999 V2000
   10.3658    1.6859    0.0000 O   0  0  0  0  0  0  0  0  0  0  0  0
    3.7158   -2.6217    0.0000 O   0  0  0  0  0  0  0  0  0  0  0  0
    8.7194    2.2240    0.0000 O   0  0  0  0  0  0  0  0  0  0  0  0
    4.5761   -4.1250    0.0000 O   0  0  0  0  0  0  0  0  0  0  0  0
   11.6387   -0.0694    0.0000 N   0  0  0  0  0  0  0  0  0  0  0  0
    3.7319   -0.5301    0.0000 N   0  0  0  0  0  0  0  0  0  0  0  0
    9.1089   -0.5694    0.0000 C   0  0  2  0  0  0  0  0  0  0  0  0
    9.1089    0.4306    0.0000 C   0  0  1  0  0  0  0  0  0  0  0  0
    8.2429   -1.0694    0.0000 C   0  0  1  0  0  0  0  0  0  0  0  0
    7.3768   -0.5694    0.0000 C   0  0  1  0  0  0  0  0  0  0  0  0
    6.4668   -1.0762    0.0000 C   0  0  2  0  0  0  0  0  0  0  0  0
   10.6387   -0.0694    0.0000 C   0  0  2  0  0  0  0  0  0  0  0  0
   10.0551    0.7354    0.0000 C   0  0  2  0  0  0  0  0  0  0  0  0
   10.0551   -0.8741    0.0000 C   0  0  0  0  0  0  0  0  0  0  0  0
    6.4588   -2.1178    0.0000 C   0  0  1  0  0  0  0  0  0  0  0  0
    8.2429    0.9306    0.0000 C   0  0  0  0  0  0  0  0  0  0  0  0
    7.3768    0.4306    0.0000 C   0  0  0  0  0  0  0  0  0  0  0  0
    8.2589   -2.1109    0.0000 C   0  0  0  0  0  0  0  0  0  0  0  0
    7.3609   -2.6386    0.0000 C   0  0  0  0  0  0  0  0  0  0  0  0
    5.5400   -0.5121    0.0000 C   0  0  0  0  0  0  0  0  0  0  0  0
    9.1089    1.4306    0.0000 C   0  0  0  0  0  0  0  0  0  0  0  0
    5.5234   -2.6675    0.0000 C   0  0  0  0  0  0  0  0  0  0  0  0
    4.5921   -1.0401    0.0000 C   0  0  1  0  0  0  0  0  0  0  0  0
    6.4746   -0.0762    0.0000 C   0  0  0  0  0  0  0  0  0  0  0  0
    4.5838   -2.1250    0.0000 C   0  0  1  0  0  0  0  0  0  0  0  0
   12.5047   -0.5694    0.0000 C   0  0  0  0  0  0  0  0  0  0  0  0
   11.6387    0.9306    0.0000 C   0  0  0  0  0  0  0  0  0  0  0  0
   11.1387   -0.9354    0.0000 C   0  0  0  0  0  0  0  0  0  0  0  0
   12.5047    1.4306    0.0000 C   0  0  0  0  0  0  0  0  0  0  0  0
   13.3708   -0.0694    0.0000 C   0  0  0  0  0  0  0  0  0  0  0  0
   13.3708    0.9306    0.0000 C   0  0  0  0  0  0  0  0  0  0  0  0
    3.7435    0.4698    0.0000 C   0  0  0  0  0  0  0  0  0  0  0  0
    2.8602   -1.0200    0.0000 C   0  0  0  0  0  0  0  0  0  0  0  0
    9.6979    2.4302    0.0000 C   0  0  0  0  0  0  0  0  0  0  0  0
   11.6387   -1.8014    0.0000 C   0  0  0  0  0  0  0  0  0  0  0  0
    2.0000   -0.5101    0.0000 C   0  0  0  0  0  0  0  0  0  0  0  0
    2.8833    0.9798    0.0000 C   0  0  0  0  0  0  0  0  0  0  0  0
    2.0116    0.4899    0.0000 C   0  0  0  0  0  0  0  0  0  0  0  0
   10.0086    3.3807    0.0000 C   0  0  0  0  0  0  0  0  0  0  0  0
    3.7120   -3.6217    0.0000 C   0  0  0  0  0  0  0  0  0  0  0  0
   11.1387   -2.6674    0.0000 C   0  0  0  0  0  0  0  0  0  0  0  0
    9.3408    4.1250    0.0000 C   0  0  0  0  0  0  0  0  0  0  0  0
    2.8440   -4.1183    0.0000 C   0  0  0  0  0  0  0  0  0  0  0  0
    9.1988   -1.4146    0.0000 H   0  0  0  0  0  0  0  0  0  0  0  0
    8.9822   -1.4887    0.0000 H   0  0  0  0  0  0  0  0  0  0  0  0
    8.1130   -0.1444    0.0000 H   0  0  0  0  0  0  0  0  0  0  0  0
   11.0249   -0.8265    0.0000 H   0  0  0  0  0  0  0  0  0  0  0  0
   10.6676    0.8316    0.0000 H   0  0  0  0  0  0  0  0  0  0  0  0
    9.8041   -1.4410    0.0000 H   0  0  0  0  0  0  0  0  0  0  0  0
   10.5925   -1.1833    0.0000 H   0  0  0  0  0  0  0  0  0  0  0  0
    6.4621   -2.9678    0.0000 H   0  0  0  0  0  0  0  0  0  0  0  0
    8.6414    1.4056    0.0000 H   0  0  0  0  0  0  0  0  0  0  0  0
    7.8443    1.4056    0.0000 H   0  0  0  0  0  0  0  0  0  0  0  0
    7.1648    1.0132    0.0000 H   0  0  0  0  0  0  0  0  0  0  0  0
    6.7663    0.3230    0.0000 H   0  0  0  0  0  0  0  0  0  0  0  0
    8.4770   -2.6913    0.0000 H   0  0  0  0  0  0  0  0  0  0  0  0
    8.8681   -1.9954    0.0000 H   0  0  0  0  0  0  0  0  0  0  0  0
    6.9636   -3.1146    0.0000 H   0  0  0  0  0  0  0  0  0  0  0  0
    7.7619   -3.1115    0.0000 H   0  0  0  0  0  0  0  0  0  0  0  0
    5.9482   -0.0455    0.0000 H   0  0  0  0  0  0  0  0  0  0  0  0
    5.1501   -0.0301    0.0000 H   0  0  0  0  0  0  0  0  0  0  0  0
    9.7289    1.4306    0.0000 H   0  0  0  0  0  0  0  0  0  0  0  0
    9.1089    2.0506    0.0000 H   0  0  0  0  0  0  0  0  0  0  0  0
    8.4889    1.4306    0.0000 H   0  0  0  0  0  0  0  0  0  0  0  0
    5.1261   -3.1435    0.0000 H   0  0  0  0  0  0  0  0  0  0  0  0
    5.9243   -3.1404    0.0000 H   0  0  0  0  0  0  0  0  0  0  0  0
    4.0522   -1.3449    0.0000 H   0  0  0  0  0  0  0  0  0  0  0  0
    7.0945   -0.0810    0.0000 H   0  0  0  0  0  0  0  0  0  0  0  0
    6.4793    0.5437    0.0000 H   0  0  0  0  0  0  0  0  0  0  0  0
    5.8546   -0.0715    0.0000 H   0  0  0  0  0  0  0  0  0  0  0  0
    4.5826   -2.7450    0.0000 H   0  0  0  0  0  0  0  0  0  0  0  0
   12.1062   -1.0443    0.0000 H   0  0  0  0  0  0  0  0  0  0  0  0
   12.9033   -1.0443    0.0000 H   0  0  0  0  0  0  0  0  0  0  0  0
   11.4267    1.5132    0.0000 H   0  0  0  0  0  0  0  0  0  0  0  0
   11.0281    0.8230    0.0000 H   0  0  0  0  0  0  0  0  0  0  0  0
   10.6638   -0.5369    0.0000 H   0  0  0  0  0  0  0  0  0  0  0  0
   10.6638   -1.3339    0.0000 H   0  0  0  0  0  0  0  0  0  0  0  0
   13.5828   -0.6520    0.0000 H   0  0  0  0  0  0  0  0  0  0  0  0
   12.9033    1.9056    0.0000 H   0  0  0  0  0  0  0  0  0  0  0  0
   12.1062    1.9056    0.0000 H   0  0  0  0  0  0  0  0  0  0  0  0
   13.9814    0.0383    0.0000 H   0  0  0  0  0  0  0  0  0  0  0  0
   13.9814    0.8230    0.0000 H   0  0  0  0  0  0  0  0  0  0  0  0
   13.5828    1.5132    0.0000 H   0  0  0  0  0  0  0  0  0  0  0  0
    2.4562   -1.4904    0.0000 H   0  0  0  0  0  0  0  0  0  0  0  0
    3.2532   -1.4996    0.0000 H   0  0  0  0  0  0  0  0  0  0  0  0
    4.3528    0.3551    0.0000 H   0  0  0  0  0  0  0  0  0  0  0  0
    3.9623    1.0500    0.0000 H   0  0  0  0  0  0  0  0  0  0  0  0
   12.2587   -1.8014    0.0000 H   0  0  0  0  0  0  0  0  0  0  0  0
    1.3907   -0.3953    0.0000 H   0  0  0  0  0  0  0  0  0  0  0  0
    1.7812   -1.0902    0.0000 H   0  0  0  0  0  0  0  0  0  0  0  0
    3.2873    1.4501    0.0000 H   0  0  0  0  0  0  0  0  0  0  0  0
    2.4903    1.4594    0.0000 H   0  0  0  0  0  0  0  0  0  0  0  0
    1.8063    1.0749    0.0000 H   0  0  0  0  0  0  0  0  0  0  0  0
    1.3998    0.3893    0.0000 H   0  0  0  0  0  0  0  0  0  0  0  0
   10.5555    3.0887    0.0000 H   0  0  0  0  0  0  0  0  0  0  0  0
   10.3912    3.8686    0.0000 H   0  0  0  0  0  0  0  0  0  0  0  0
   10.5187   -2.6674    0.0000 H   0  0  0  0  0  0  0  0  0  0  0  0
   11.4487   -3.2044    0.0000 H   0  0  0  0  0  0  0  0  0  0  0  0
    9.8022    4.5391    0.0000 H   0  0  0  0  0  0  0  0  0  0  0  0
    8.9267    4.5865    0.0000 H   0  0  0  0  0  0  0  0  0  0  0  0
    8.8793    3.7110    0.0000 H   0  0  0  0  0  0  0  0  0  0  0  0
    2.5361   -3.5802    0.0000 H   0  0  0  0  0  0  0  0  0  0  0  0
    2.3059   -4.4263    0.0000 H   0  0  0  0  0  0  0  0  0  0  0  0
    3.1519   -4.6565    0.0000 H   0  0  0  0  0  0  0  0  0  0  0  0
 13  1  1  1  0  0  0 
  1 34  1  0  0  0  0 
 25  2  1  6  0  0  0 
  2 40  1  0  0  0  0 
  3 34  2  0  0  0  0 
  4 40  2  0  0  0  0 
  5 12  1  0  0  0  0 
  5 26  1  0  0  0  0 
  5 27  1  0  0  0  0 
  5 28  1  0  0  0  0 
 23  6  1  1  0  0  0 
  6 32  1  0  0  0  0 
  6 33  1  0  0  0  0 
  7  8  1  0  0  0  0 
  7  9  1  0  0  0  0 
  7 14  1  0  0  0  0 
  7 44  1  6  0  0  0 
  8 13  1  0  0  0  0 
  8 16  1  0  0  0  0 
  8 21  1  1  0  0  0 
  9 10  1  0  0  0  0 
  9 18  1  0  0  0  0 
  9 45  1  1  0  0  0 
 10 11  1  0  0  0  0 
 10 17  1  0  0  0  0 
 10 46  1  6  0  0  0 
 11 15  1  0  0  0  0 
 11 20  1  0  0  0  0 
 11 24  1  1  0  0  0 
 12 13  1  0  0  0  0 
 12 14  1  0  0  0  0 
 12 47  1  6  0  0  0 
 13 48  1  0  0  0  0 
 14 49  1  0  0  0  0 
 14 50  1  0  0  0  0 
 15 19  1  0  0  0  0 
 15 22  1  0  0  0  0 
 15 51  1  6  0  0  0 
 16 17  1  0  0  0  0 
 16 52  1  0  0  0  0 
 16 53  1  0  0  0  0 
 17 54  1  0  0  0  0 
 17 55  1  0  0  0  0 
 18 19  1  0  0  0  0 
 18 56  1  0  0  0  0 
 18 57  1  0  0  0  0 
 19 58  1  0  0  0  0 
 19 59  1  0  0  0  0 
 20 23  1  0  0  0  0 
 20 60  1  0  0  0  0 
 20 61  1  0  0  0  0 
 21 62  1  0  0  0  0 
 21 63  1  0  0  0  0 
 21 64  1  0  0  0  0 
 22 25  1  0  0  0  0 
 22 65  1  0  0  0  0 
 22 66  1  0  0  0  0 
 23 25  1  0  0  0  0 
 23 67  1  0  0  0  0 
 24 68  1  0  0  0  0 
 24 69  1  0  0  0  0 
 24 70  1  0  0  0  0 
 25 71  1  0  0  0  0 
 26 30  1  0  0  0  0 
 26 72  1  0  0  0  0 
 26 73  1  0  0  0  0 
 27 29  1  0  0  0  0 
 27 74  1  0  0  0  0 
 27 75  1  0  0  0  0 
 28 35  1  0  0  0  0 
 28 76  1  0  0  0  0 
 28 77  1  0  0  0  0 
 29 31  1  0  0  0  0 
 29 79  1  0  0  0  0 
 29 80  1  0  0  0  0 
 30 31  1  0  0  0  0 
 30 78  1  0  0  0  0 
 30 81  1  0  0  0  0 
 31 82  1  0  0  0  0 
 31 83  1  0  0  0  0 
 32 37  1  0  0  0  0 
 32 86  1  0  0  0  0 
 32 87  1  0  0  0  0 
 33 36  1  0  0  0  0 
 33 84  1  0  0  0  0 
 33 85  1  0  0  0  0 
 34 39  1  0  0  0  0 
 35 41  2  0  0  0  0 
 35 88  1  0  0  0  0 
 36 38  1  0  0  0  0 
 36 89  1  0  0  0  0 
 36 90  1  0  0  0  0 
 37 38  1  0  0  0  0 
 37 91  1  0  0  0  0 
 37 92  1  0  0  0  0 
 38 93  1  0  0  0  0 
 38 94  1  0  0  0  0 
 39 42  1  0  0  0  0 
 39 95  1  0  0  0  0 
 39 96  1  0  0  0  0 
 40 43  1  0  0  0  0 
 41 97  1  0  0  0  0 
 41 98  1  0  0  0  0 
 42 99  1  0  0  0  0 
 42100  1  0  0  0  0 
 42101  1  0  0  0  0 
 43102  1  0  0  0  0 
 43103  1  0  0  0  0 
 43104  1  0  0  0  0 
M  CHG  1   5   1
M  END
> <cdk:Title>
5311399

> <cdk:Remark>
null

> <PUBCHEM_COMPOUND_CID>
5311399

> <PUBCHEM_COMPOUND_CANONICALIZED>
1

> <PUBCHEM_CACTVS_COMPLEXITY>
1030

> <PUBCHEM_CACTVS_HBOND_ACCEPTOR>
5

> <PUBCHEM_CACTVS_HBOND_DONOR>
0

> <PUBCHEM_CACTVS_ROTATABLE_BOND>
9

> <PUBCHEM_CACTVS_SUBSKEYS>
AAADcfB/OAAAAAAAAAAAAAAAAAAAAYAAAAA8eMECAAAAAGDAAAAAHgAAAAAADzzhgAYCCAMABACIACDSCACAAAAAAAAIAAEIAAACAAIAgQAHAAAEAACQAAGQ0PIPgAAAAAAAAADQAAaAACAgAKAADAgAAA==

> <PUBCHEM_IUPAC_OPENEYE_NAME>
[(2S,3S,5S,8R,9S,10S,13S,14S,16S,17R)-3-acetoxy-16-(1-allylpiperidin-1-ium-1-yl)-10,13-dimethyl-2-(1-piperidyl)-2,3,4,5,6,7,8,9,11,12,14,15,16,17-tetradecahydro-1H-cyclopenta[a]phenanthren-17-yl] propanoate

> <PUBCHEM_IUPAC_CAS_NAME>
propanoic acid [(2S,3S,5S,8R,9S,10S,13S,14S,16S,17R)-3-acetyloxy-10,13-dimethyl-2-(1-piperidinyl)-16-(1-prop-2-enyl-1-piperidin-1-iumyl)-2,3,4,5,6,7,8,9,11,12,14,15,16,17-tetradecahydro-1H-cyclopenta[a]phenanthren-17-yl] ester

> <PUBCHEM_IUPAC_NAME>
[(2S,3S,5S,8R,9S,10S,13S,14S,16S,17R)-3-acetyloxy-10,13-dimethyl-2-piperidin-1-yl-16-(1-prop-2-enylpiperidin-1-ium-1-yl)-2,3,4,5,6,7,8,9,11,12,14,15,16,17-tetradecahydro-1H-cyclopenta[a]phenanthren-17-yl] propanoate

> <PUBCHEM_IUPAC_SYSTEMATIC_NAME>
[(2S,3S,5S,8R,9S,10S,13S,14S,16S,17R)-3-acetyloxy-10,13-dimethyl-2-piperidin-1-yl-16-(1-prop-2-enylpiperidin-1-ium-1-yl)-2,3,4,5,6,7,8,9,11,12,14,15,16,17-tetradecahydro-1H-cyclopenta[a]phenanthren-17-yl] propanoate

> <PUBCHEM_IUPAC_TRADITIONAL_NAME>
propionic acid [(2S,3S,5S,8R,9S,10S,13S,14S,16S,17R)-3-acetoxy-16-(1-allylpiperidin-1-ium-1-yl)-10,13-dimethyl-2-piperidino-2,3,4,5,6,7,8,9,11,12,14,15,16,17-tetradecahydro-1H-cyclopenta[a]phenanthren-17-yl] ester

> <PUBCHEM_IUPAC_INCHI>
InChI=1S/C37H61N2O4/c1-6-20-39(21-12-9-13-22-39)32-24-30-28-15-14-27-23-33(42-26(3)40)31(38-18-10-8-11-19-38)25-37(27,5)29(28)16-17-36(30,4)35(32)43-34(41)7-2/h6,27-33,35H,1,7-25H2,2-5H3/q+1/t27-,28+,29-,30-,31-,32-,33-,35-,36-,37-/m0/s1

> <PUBCHEM_IUPAC_INCHIKEY>
HTIKWNNIPGXLGM-YLINKJIISA-N

> <PUBCHEM_XLOGP3_AA>
7.6

> <PUBCHEM_EXACT_MASS>
597.463133

> <PUBCHEM_MOLECULAR_FORMULA>
C37H61N2O4+

> <PUBCHEM_MOLECULAR_WEIGHT>
597.89124

> <PUBCHEM_OPENEYE_CAN_SMILES>
CCC(=O)OC1C(CC2C1(CCC3C2CCC4C3(CC(C(C4)OC(=O)C)N5CCCCC5)C)C)[N+]6(CCCCC6)CC=C

> <PUBCHEM_OPENEYE_ISO_SMILES>
CCC(=O)O[C@H]1[C@H](C[C@@H]2[C@@]1(CC[C@H]3[C@H]2CC[C@@H]4[C@@]3(C[C@@H]([C@H](C4)OC(=O)C)N5CCCCC5)C)C)[N+]6(CCCCC6)CC=C

> <PUBCHEM_CACTVS_TPSA>
55.8

> <PUBCHEM_MONOISOTOPIC_WEIGHT>
597.463133

> <PUBCHEM_TOTAL_CHARGE>
1

> <PUBCHEM_HEAVY_ATOM_COUNT>
43

> <PUBCHEM_ATOM_DEF_STEREO_COUNT>
10

> <PUBCHEM_ATOM_UDEF_STEREO_COUNT>
0

> <PUBCHEM_BOND_DEF_STEREO_COUNT>
0

> <PUBCHEM_BOND_UDEF_STEREO_COUNT>
0

> <PUBCHEM_ISOTOPIC_ATOM_COUNT>
0

> <PUBCHEM_COMPONENT_COUNT>
1

> <PUBCHEM_CACTVS_TAUTO_COUNT>
1

> <PUBCHEM_COORDINATE_TYPE>
1
5
255

> <PUBCHEM_BONDANNOTATIONS>
13  1  5
10  46  6
11  24  5
12  47  6
15  51  6
25  2  6
23  6  5
7  44  6
8  21  5
9  45  5

> <DRUG_ID>
w87

> <DRUG_NAME>
Rapacuronium

$$$$
5359
  CDK     0927151942
null
 30 31  0  0  0  0  0  0  0  0999 V2000
    5.5116    2.1470    0.0000 S   0  0  0  0  0  0  0  0  0  0  0  0
    2.8660   -3.4462    0.0000 O   0  0  0  0  0  0  0  0  0  0  0  0
    2.0000   -1.9462    0.0000 O   0  0  0  0  0  0  0  0  0  0  0  0
    2.8660    2.5538    0.0000 O   0  0  0  0  0  0  0  0  0  0  0  0
    3.7320   -1.9462    0.0000 C   0  0  3  0  0  0  0  0  0  0  0  0
    3.7320   -0.9462    0.0000 C   0  0  0  0  0  0  0  0  0  0  0  0
    4.5981   -0.4462    0.0000 C   0  0  0  0  0  0  0  0  0  0  0  0
    2.8660   -0.4462    0.0000 C   0  0  0  0  0  0  0  0  0  0  0  0
    3.7320    1.0538    0.0000 C   0  0  0  0  0  0  0  0  0  0  0  0
    4.5981   -2.4462    0.0000 C   0  0  0  0  0  0  0  0  0  0  0  0
    4.5981    0.5538    0.0000 C   0  0  0  0  0  0  0  0  0  0  0  0
    2.8660    0.5538    0.0000 C   0  0  0  0  0  0  0  0  0  0  0  0
    2.8660   -2.4462    0.0000 C   0  0  0  0  0  0  0  0  0  0  0  0
    3.7320    2.0538    0.0000 C   0  0  0  0  0  0  0  0  0  0  0  0
    4.5981    2.5538    0.0000 C   0  0  0  0  0  0  0  0  0  0  0  0
    4.7026    3.5483    0.0000 C   0  0  0  0  0  0  0  0  0  0  0  0
    5.6808    3.7562    0.0000 C   0  0  0  0  0  0  0  0  0  0  0  0
    6.1808    2.8902    0.0000 C   0  0  0  0  0  0  0  0  0  0  0  0
    3.7320   -2.5662    0.0000 H   0  0  0  0  0  0  0  0  0  0  0  0
    5.1350   -0.7562    0.0000 H   0  0  0  0  0  0  0  0  0  0  0  0
    2.3291   -0.7562    0.0000 H   0  0  0  0  0  0  0  0  0  0  0  0
    4.2881   -2.9832    0.0000 H   0  0  0  0  0  0  0  0  0  0  0  0
    5.1350   -2.7562    0.0000 H   0  0  0  0  0  0  0  0  0  0  0  0
    4.9081   -1.9093    0.0000 H   0  0  0  0  0  0  0  0  0  0  0  0
    5.1350    0.8638    0.0000 H   0  0  0  0  0  0  0  0  0  0  0  0
    2.3291    0.8638    0.0000 H   0  0  0  0  0  0  0  0  0  0  0  0
    4.2419    3.9632    0.0000 H   0  0  0  0  0  0  0  0  0  0  0  0
    5.9329    4.3226    0.0000 H   0  0  0  0  0  0  0  0  0  0  0  0
    6.7974    2.8254    0.0000 H   0  0  0  0  0  0  0  0  0  0  0  0
    2.3291   -3.7562    0.0000 H   0  0  0  0  0  0  0  0  0  0  0  0
  1 15  1  0  0  0  0 
  1 18  1  0  0  0  0 
  2 13  1  0  0  0  0 
  2 30  1  0  0  0  0 
  3 13  2  0  0  0  0 
  4 14  2  0  0  0  0 
  5  6  1  0  0  0  0 
  5 10  1  0  0  0  0 
  5 13  1  0  0  0  0 
  5 19  1  0  0  0  0 
  6  7  2  0  0  0  0 
  6  8  1  0  0  0  0 
  7 11  1  0  0  0  0 
  7 20  1  0  0  0  0 
  8 12  2  0  0  0  0 
  8 21  1  0  0  0  0 
  9 11  2  0  0  0  0 
  9 12  1  0  0  0  0 
  9 14  1  0  0  0  0 
 10 22  1  0  0  0  0 
 10 23  1  0  0  0  0 
 10 24  1  0  0  0  0 
 11 25  1  0  0  0  0 
 12 26  1  0  0  0  0 
 14 15  1  0  0  0  0 
 15 16  2  0  0  0  0 
 16 17  1  0  0  0  0 
 16 27  1  0  0  0  0 
 17 18  2  0  0  0  0 
 17 28  1  0  0  0  0 
 18 29  1  0  0  0  0 
M  END
> <cdk:Title>
5359

> <cdk:Remark>
null

> <PUBCHEM_COMPOUND_CID>
5359

> <PUBCHEM_COMPOUND_CANONICALIZED>
1

> <PUBCHEM_CACTVS_COMPLEXITY>
321

> <PUBCHEM_CACTVS_HBOND_ACCEPTOR>
4

> <PUBCHEM_CACTVS_HBOND_DONOR>
1

> <PUBCHEM_CACTVS_ROTATABLE_BOND>
4

> <PUBCHEM_CACTVS_SUBSKEYS>
AAADccBwMABAAAAAAAAAAAAAAAAAASAAAAAwAAAAAAAAAAABwAAAGgQACAAADQSE2ACyCYAAAgiMAqDSCAADAIAkCBBIiBkAAMgIIDKgFRCAYQAkwAEoiYeIyOCOwAAAAAAAAACAAAAAAAAAAAAAAAAAAA==

> <PUBCHEM_IUPAC_OPENEYE_NAME>
2-[4-(thiophene-2-carbonyl)phenyl]propanoic acid

> <PUBCHEM_IUPAC_CAS_NAME>
2-[4-[oxo(thiophen-2-yl)methyl]phenyl]propanoic acid

> <PUBCHEM_IUPAC_NAME>
2-[4-(thiophene-2-carbonyl)phenyl]propanoic acid

> <PUBCHEM_IUPAC_SYSTEMATIC_NAME>
2-(4-thiophen-2-ylcarbonylphenyl)propanoic acid

> <PUBCHEM_IUPAC_TRADITIONAL_NAME>
2-[4-(2-thenoyl)phenyl]propionic acid

> <PUBCHEM_IUPAC_INCHI>
InChI=1S/C14H12O3S/c1-9(14(16)17)10-4-6-11(7-5-10)13(15)12-3-2-8-18-12/h2-9H,1H3,(H,16,17)

> <PUBCHEM_IUPAC_INCHIKEY>
MDKGKXOCJGEUJW-UHFFFAOYSA-N

> <PUBCHEM_XLOGP3_AA>
3.3

> <PUBCHEM_EXACT_MASS>
260.050715

> <PUBCHEM_MOLECULAR_FORMULA>
C14H12O3S

> <PUBCHEM_MOLECULAR_WEIGHT>
260.30828

> <PUBCHEM_OPENEYE_CAN_SMILES>
CC(C1=CC=C(C=C1)C(=O)C2=CC=CS2)C(=O)O

> <PUBCHEM_OPENEYE_ISO_SMILES>
CC(C1=CC=C(C=C1)C(=O)C2=CC=CS2)C(=O)O

> <PUBCHEM_CACTVS_TPSA>
82.6

> <PUBCHEM_MONOISOTOPIC_WEIGHT>
260.050715

> <PUBCHEM_TOTAL_CHARGE>
0

> <PUBCHEM_HEAVY_ATOM_COUNT>
18

> <PUBCHEM_ATOM_DEF_STEREO_COUNT>
0

> <PUBCHEM_ATOM_UDEF_STEREO_COUNT>
1

> <PUBCHEM_BOND_DEF_STEREO_COUNT>
0

> <PUBCHEM_BOND_UDEF_STEREO_COUNT>
0

> <PUBCHEM_ISOTOPIC_ATOM_COUNT>
0

> <PUBCHEM_COMPONENT_COUNT>
1

> <PUBCHEM_CACTVS_TAUTO_COUNT>
5

> <PUBCHEM_COORDINATE_TYPE>
1
5
255

> <PUBCHEM_BONDANNOTATIONS>
1  15  8
1  18  8
15  16  8
16  17  8
17  18  8
5  10  3
6  7  8
6  8  8
7  11  8
8  12  8
9  11  8
9  12  8

> <DRUG_ID>
w88

> <DRUG_NAME>
Suprofen

$$$$
4659569
  CDK     0927151942
null
 31 32  0  0  0  0  0  0  0  0999 V2000
    6.8671    0.7500    0.0000 O   0  0  0  0  0  0  0  0  0  0  0  0
    2.5369    0.2500    0.0000 O   0  0  0  0  0  0  0  0  0  0  0  0
    2.5369    2.2500    0.0000 O   0  0  0  0  0  0  0  0  0  0  0  0
    5.1350    3.7500    0.0000 O   0  0  0  0  0  0  0  0  0  0  0  0
    3.4030    3.7500    0.0000 O   0  0  0  0  0  0  0  0  0  0  0  0
    4.2690    3.2500    0.0000 N   0  0  0  0  0  0  0  0  0  0  0  0
    5.1350    0.7500    0.0000 C   0  0  0  0  0  0  0  0  0  0  0  0
    6.0010   -0.7500    0.0000 C   0  0  0  0  0  0  0  0  0  0  0  0
    6.0010    0.2500    0.0000 C   0  0  0  0  0  0  0  0  0  0  0  0
    5.1350    1.7500    0.0000 C   0  0  0  0  0  0  0  0  0  0  0  0
    4.2690    0.2500    0.0000 C   0  0  0  0  0  0  0  0  0  0  0  0
    4.2690    2.2500    0.0000 C   0  0  0  0  0  0  0  0  0  0  0  0
    3.4030    0.7500    0.0000 C   0  0  0  0  0  0  0  0  0  0  0  0
    6.0010   -2.7500    0.0000 C   0  0  0  0  0  0  0  0  0  0  0  0
    5.1350   -1.2500    0.0000 C   0  0  0  0  0  0  0  0  0  0  0  0
    6.8671   -1.2500    0.0000 C   0  0  0  0  0  0  0  0  0  0  0  0
    3.4030    1.7500    0.0000 C   0  0  0  0  0  0  0  0  0  0  0  0
    5.1350   -2.2500    0.0000 C   0  0  0  0  0  0  0  0  0  0  0  0
    6.8671   -2.2500    0.0000 C   0  0  0  0  0  0  0  0  0  0  0  0
    6.0010   -3.7500    0.0000 C   0  0  0  0  0  0  0  0  0  0  0  0
    5.6720    2.0600    0.0000 H   0  0  0  0  0  0  0  0  0  0  0  0
    4.2690   -0.3700    0.0000 H   0  0  0  0  0  0  0  0  0  0  0  0
    4.5981   -0.9400    0.0000 H   0  0  0  0  0  0  0  0  0  0  0  0
    7.4040   -0.9400    0.0000 H   0  0  0  0  0  0  0  0  0  0  0  0
    4.5981   -2.5600    0.0000 H   0  0  0  0  0  0  0  0  0  0  0  0
    7.4040   -2.5600    0.0000 H   0  0  0  0  0  0  0  0  0  0  0  0
    5.3810   -3.7500    0.0000 H   0  0  0  0  0  0  0  0  0  0  0  0
    6.0010   -4.3700    0.0000 H   0  0  0  0  0  0  0  0  0  0  0  0
    6.6210   -3.7500    0.0000 H   0  0  0  0  0  0  0  0  0  0  0  0
    2.5369   -0.3700    0.0000 H   0  0  0  0  0  0  0  0  0  0  0  0
    2.0000    1.9400    0.0000 H   0  0  0  0  0  0  0  0  0  0  0  0
  1  9  2  0  0  0  0 
  2 13  1  0  0  0  0 
  2 30  1  0  0  0  0 
  3 17  1  0  0  0  0 
  3 31  1  0  0  0  0 
  4  6  1  0  0  0  0 
  5  6  2  0  0  0  0 
  6 12  1  0  0  0  0 
  7  9  1  0  0  0  0 
  7 10  2  0  0  0  0 
  7 11  1  0  0  0  0 
  8  9  1  0  0  0  0 
  8 15  2  0  0  0  0 
  8 16  1  0  0  0  0 
 10 12  1  0  0  0  0 
 10 21  1  0  0  0  0 
 11 13  2  0  0  0  0 
 11 22  1  0  0  0  0 
 12 17  2  0  0  0  0 
 13 17  1  0  0  0  0 
 14 18  2  0  0  0  0 
 14 19  1  0  0  0  0 
 14 20  1  0  0  0  0 
 15 18  1  0  0  0  0 
 15 23  1  0  0  0  0 
 16 19  2  0  0  0  0 
 16 24  1  0  0  0  0 
 18 25  1  0  0  0  0 
 19 26  1  0  0  0  0 
 20 27  1  0  0  0  0 
 20 28  1  0  0  0  0 
 20 29  1  0  0  0  0 
M  CHG  1   4  -1
M  CHG  1   6   1
M  END
> <cdk:Title>
4659569

> <cdk:Remark>
null

> <PUBCHEM_COMPOUND_CID>
4659569

> <PUBCHEM_COMPOUND_CANONICALIZED>
1

> <PUBCHEM_CACTVS_COMPLEXITY>
372

> <PUBCHEM_CACTVS_HBOND_ACCEPTOR>
5

> <PUBCHEM_CACTVS_HBOND_DONOR>
2

> <PUBCHEM_CACTVS_ROTATABLE_BOND>
2

> <PUBCHEM_CACTVS_SUBSKEYS>
AAADccByOAAAAAAAAAAAAAAAAAAAAAAAAAAwYAAAAAAAAAABQAAAHgAECAAADAyBmAAyxoAQQgCJAqRSQwCCAAAkIgAoiAEH7MoLJjKSlZOAcQFmwFkJ2Yee3PHOYAABQgAAUADAAAKEAACgAAAAAAAAAA==

> <PUBCHEM_IUPAC_OPENEYE_NAME>
(3,4-dihydroxy-5-nitro-phenyl)-(p-tolyl)methanone

> <PUBCHEM_IUPAC_CAS_NAME>
(3,4-dihydroxy-5-nitrophenyl)-(4-methylphenyl)methanone

> <PUBCHEM_IUPAC_NAME>
(3,4-dihydroxy-5-nitrophenyl)-(4-methylphenyl)methanone

> <PUBCHEM_IUPAC_SYSTEMATIC_NAME>
(4-methylphenyl)-[3-nitro-4,5-bis(oxidanyl)phenyl]methanone

> <PUBCHEM_IUPAC_TRADITIONAL_NAME>
(3,4-dihydroxy-5-nitro-phenyl)-(p-tolyl)methanone

> <PUBCHEM_IUPAC_INCHI>
InChI=1S/C14H11NO5/c1-8-2-4-9(5-3-8)13(17)10-6-11(15(19)20)14(18)12(16)7-10/h2-7,16,18H,1H3

> <PUBCHEM_IUPAC_INCHIKEY>
MIQPIUSUKVNLNT-UHFFFAOYSA-N

> <PUBCHEM_XLOGP3_AA>
3.3

> <PUBCHEM_EXACT_MASS>
273.063722

> <PUBCHEM_MOLECULAR_FORMULA>
C14H11NO5

> <PUBCHEM_MOLECULAR_WEIGHT>
273.24084

> <PUBCHEM_OPENEYE_CAN_SMILES>
CC1=CC=C(C=C1)C(=O)C2=CC(=C(C(=C2)O)O)[N+](=O)[O-]

> <PUBCHEM_OPENEYE_ISO_SMILES>
CC1=CC=C(C=C1)C(=O)C2=CC(=C(C(=C2)O)O)[N+](=O)[O-]

> <PUBCHEM_CACTVS_TPSA>
103

> <PUBCHEM_MONOISOTOPIC_WEIGHT>
273.063722

> <PUBCHEM_TOTAL_CHARGE>
0

> <PUBCHEM_HEAVY_ATOM_COUNT>
20

> <PUBCHEM_ATOM_DEF_STEREO_COUNT>
0

> <PUBCHEM_ATOM_UDEF_STEREO_COUNT>
0

> <PUBCHEM_BOND_DEF_STEREO_COUNT>
0

> <PUBCHEM_BOND_UDEF_STEREO_COUNT>
0

> <PUBCHEM_ISOTOPIC_ATOM_COUNT>
0

> <PUBCHEM_COMPONENT_COUNT>
1

> <PUBCHEM_CACTVS_TAUTO_COUNT>
65

> <PUBCHEM_COORDINATE_TYPE>
1
5
255

> <PUBCHEM_BONDANNOTATIONS>
10  12  8
11  13  8
12  17  8
13  17  8
14  18  8
14  19  8
15  18  8
16  19  8
7  10  8
7  11  8
8  15  8
8  16  8

> <DRUG_ID>
w89

> <DRUG_NAME>
Tolcapone

$$$$
71277
  CDK     0927151942
null
126128  0  0  0  0  0  0  0  0999 V2000
    6.5000   -1.1830    0.0000 O   0  0  0  0  0  0  0  0  0  0  0  0
    6.5000    0.5490    0.0000 O   0  0  0  0  0  0  0  0  0  0  0  0
    6.5000   -2.9151    0.0000 O   0  0  0  0  0  0  0  0  0  0  0  0
    8.2589   -3.0149    0.0000 O   0  0  0  0  0  0  0  0  0  0  0  0
    5.0000    1.4151    0.0000 O   0  0  0  0  0  0  0  0  0  0  0  0
    9.5000    2.2811    0.0000 O   0  0  0  0  0  0  0  0  0  0  0  0
    4.5000   -1.1830    0.0000 O   0  0  0  0  0  0  0  0  0  0  0  0
    6.0000    4.1471    0.0000 O   0  0  0  0  0  0  0  0  0  0  0  0
    4.5000    4.0131    0.0000 O   0  0  0  0  0  0  0  0  0  0  0  0
   11.9659    1.6739    0.0000 O   0  0  0  0  0  0  0  0  0  0  0  0
    9.7340    1.1919    0.0000 O   0  0  0  0  0  0  0  0  0  0  0  0
   11.0000   -2.0490    0.0000 O   0  0  0  0  0  0  0  0  0  0  0  0
    9.5000    0.5490    0.0000 O   0  0  0  0  0  0  0  0  0  0  0  0
    3.0000   -2.0490    0.0000 O   0  0  0  0  0  0  0  0  0  0  0  0
    3.7339   -3.5578    0.0000 N   0  0  0  0  0  0  0  0  0  0  0  0
    7.5000   -1.1830    0.0000 C   0  0  2  0  0  0  0  0  0  0  0  0
    8.0000   -0.3170    0.0000 C   0  0  2  0  0  0  0  0  0  0  0  0
    8.0000   -2.0490    0.0000 C   0  0  1  0  0  0  0  0  0  0  0  0
    7.5000    0.5490    0.0000 C   0  0  1  0  0  0  0  0  0  0  0  0
    9.0000   -2.0490    0.0000 C   0  0  0  0  0  0  0  0  0  0  0  0
    8.0000    1.4151    0.0000 C   0  0  2  0  0  0  0  0  0  0  0  0
    6.0000   -2.0490    0.0000 C   0  0  2  0  0  0  0  0  0  0  0  0
    9.5000   -1.1830    0.0000 C   0  0  2  0  0  0  0  0  0  0  0  0
    5.0000   -2.0490    0.0000 C   0  0  1  0  0  0  0  0  0  0  0  0
    4.5000   -2.9151    0.0000 C   0  0  2  0  0  0  0  0  0  0  0  0
    6.0000    1.4151    0.0000 C   0  0  2  0  0  0  0  0  0  0  0  0
    9.0000   -0.3170    0.0000 C   0  0  0  0  0  0  0  0  0  0  0  0
    6.0000    3.1471    0.0000 C   0  0  2  0  0  0  0  0  0  0  0  0
    7.2929   -2.7562    0.0000 C   0  0  0  0  0  0  0  0  0  0  0  0
    6.5000    2.2811    0.0000 C   0  0  0  0  0  0  0  0  0  0  0  0
    5.0000   -3.7811    0.0000 C   0  0  0  0  0  0  0  0  0  0  0  0
    5.0000    3.1471    0.0000 C   0  0  2  0  0  0  0  0  0  0  0  0
   11.0000   -0.3170    0.0000 C   0  0  2  0  0  0  0  0  0  0  0  0
    6.0000   -3.7811    0.0000 C   0  0  1  0  0  0  0  0  0  0  0  0
   11.0000    1.4151    0.0000 C   0  0  1  0  0  0  0  0  0  0  0  0
   10.5000    0.5490    0.0000 C   0  0  2  0  0  0  0  0  0  0  0  0
    4.5000    2.2811    0.0000 C   0  0  2  0  0  0  0  0  0  0  0  0
   10.5000   -1.1830    0.0000 C   0  0  0  0  0  0  0  0  0  0  0  0
   10.5000    2.2811    0.0000 C   0  0  1  0  0  0  0  0  0  0  0  0
    9.0000    1.4151    0.0000 C   0  0  0  0  0  0  0  0  0  0  0  0
    7.5000    2.2811    0.0000 C   0  0  0  0  0  0  0  0  0  0  0  0
    8.5000   -1.1830    0.0000 C   0  0  0  0  0  0  0  0  0  0  0  0
    6.8660    3.6471    0.0000 C   0  0  0  0  0  0  0  0  0  0  0  0
   12.0000   -0.3170    0.0000 C   0  0  0  0  0  0  0  0  0  0  0  0
    6.5000   -4.6471    0.0000 C   0  0  0  0  0  0  0  0  0  0  0  0
   11.8192    0.8415    0.0000 C   0  0  0  0  0  0  0  0  0  0  0  0
   11.0000    3.1471    0.0000 C   0  0  0  0  0  0  0  0  0  0  0  0
    3.5000    2.2811    0.0000 C   0  0  0  0  0  0  0  0  0  0  0  0
    3.9076   -4.5426    0.0000 C   0  0  0  0  0  0  0  0  0  0  0  0
    2.7943   -3.2158    0.0000 C   0  0  0  0  0  0  0  0  0  0  0  0
   10.5000    4.0131    0.0000 C   0  0  0  0  0  0  0  0  0  0  0  0
    3.5000   -1.1830    0.0000 C   0  0  0  0  0  0  0  0  0  0  0  0
    6.8660    4.6471    0.0000 C   0  0  0  0  0  0  0  0  0  0  0  0
    3.0000   -0.3170    0.0000 C   0  0  0  0  0  0  0  0  0  0  0  0
    2.0000   -0.3170    0.0000 C   0  0  0  0  0  0  0  0  0  0  0  0
    7.1900   -0.6461    0.0000 H   0  0  0  0  0  0  0  0  0  0  0  0
    8.3100    0.2199    0.0000 H   0  0  0  0  0  0  0  0  0  0  0  0
    7.1900    1.0860    0.0000 H   0  0  0  0  0  0  0  0  0  0  0  0
    8.8923   -2.6596    0.0000 H   0  0  0  0  0  0  0  0  0  0  0  0
    9.5826   -2.2611    0.0000 H   0  0  0  0  0  0  0  0  0  0  0  0
    8.3100    1.9520    0.0000 H   0  0  0  0  0  0  0  0  0  0  0  0
    5.6900   -1.5121    0.0000 H   0  0  0  0  0  0  0  0  0  0  0  0
    9.5000   -0.5630    0.0000 H   0  0  0  0  0  0  0  0  0  0  0  0
    4.3800   -2.0490    0.0000 H   0  0  0  0  0  0  0  0  0  0  0  0
    4.0251   -2.5165    0.0000 H   0  0  0  0  0  0  0  0  0  0  0  0
    5.6900    0.8781    0.0000 H   0  0  0  0  0  0  0  0  0  0  0  0
    9.0000   -0.9370    0.0000 H   0  0  0  0  0  0  0  0  0  0  0  0
    9.6200   -0.3170    0.0000 H   0  0  0  0  0  0  0  0  0  0  0  0
    9.0000    0.3030    0.0000 H   0  0  0  0  0  0  0  0  0  0  0  0
    6.8545   -2.3177    0.0000 H   0  0  0  0  0  0  0  0  0  0  0  0
    6.8545   -3.1946    0.0000 H   0  0  0  0  0  0  0  0  0  0  0  0
    7.7313   -3.1946    0.0000 H   0  0  0  0  0  0  0  0  0  0  0  0
    6.9750    1.8826    0.0000 H   0  0  0  0  0  0  0  0  0  0  0  0
    6.9750    2.6796    0.0000 H   0  0  0  0  0  0  0  0  0  0  0  0
    4.4174   -3.9931    0.0000 H   0  0  0  0  0  0  0  0  0  0  0  0
    5.1077   -4.3917    0.0000 H   0  0  0  0  0  0  0  0  0  0  0  0
    4.3800    3.1471    0.0000 H   0  0  0  0  0  0  0  0  0  0  0  0
   11.3100    0.2199    0.0000 H   0  0  0  0  0  0  0  0  0  0  0  0
    6.6200   -3.7811    0.0000 H   0  0  0  0  0  0  0  0  0  0  0  0
   10.0250    0.1505    0.0000 H   0  0  0  0  0  0  0  0  0  0  0  0
    4.1900    1.7442    0.0000 H   0  0  0  0  0  0  0  0  0  0  0  0
   10.1900    2.8180    0.0000 H   0  0  0  0  0  0  0  0  0  0  0  0
    8.8577   -3.1754    0.0000 H   0  0  0  0  0  0  0  0  0  0  0  0
    8.0369    2.5911    0.0000 H   0  0  0  0  0  0  0  0  0  0  0  0
    7.1900    2.8180    0.0000 H   0  0  0  0  0  0  0  0  0  0  0  0
    6.9631    1.9711    0.0000 H   0  0  0  0  0  0  0  0  0  0  0  0
    8.5000   -0.5630    0.0000 H   0  0  0  0  0  0  0  0  0  0  0  0
    7.8800   -1.1830    0.0000 H   0  0  0  0  0  0  0  0  0  0  0  0
    8.5000   -1.8030    0.0000 H   0  0  0  0  0  0  0  0  0  0  0  0
    7.1760    3.1102    0.0000 H   0  0  0  0  0  0  0  0  0  0  0  0
    7.4030    3.9571    0.0000 H   0  0  0  0  0  0  0  0  0  0  0  0
    6.5560    4.1840    0.0000 H   0  0  0  0  0  0  0  0  0  0  0  0
   12.0000   -0.9370    0.0000 H   0  0  0  0  0  0  0  0  0  0  0  0
   12.6200   -0.3170    0.0000 H   0  0  0  0  0  0  0  0  0  0  0  0
   12.0000    0.3030    0.0000 H   0  0  0  0  0  0  0  0  0  0  0  0
    5.9631   -4.9571    0.0000 H   0  0  0  0  0  0  0  0  0  0  0  0
    6.8100   -5.1840    0.0000 H   0  0  0  0  0  0  0  0  0  0  0  0
    7.0369   -4.3371    0.0000 H   0  0  0  0  0  0  0  0  0  0  0  0
   11.4635    0.3336    0.0000 H   0  0  0  0  0  0  0  0  0  0  0  0
   12.3270    0.4859    0.0000 H   0  0  0  0  0  0  0  0  0  0  0  0
   12.1748    1.3494    0.0000 H   0  0  0  0  0  0  0  0  0  0  0  0
   11.4749    2.7486    0.0000 H   0  0  0  0  0  0  0  0  0  0  0  0
   11.4749    3.5456    0.0000 H   0  0  0  0  0  0  0  0  0  0  0  0
    3.5000    2.9011    0.0000 H   0  0  0  0  0  0  0  0  0  0  0  0
    2.8800    2.2811    0.0000 H   0  0  0  0  0  0  0  0  0  0  0  0
    3.5000    1.6611    0.0000 H   0  0  0  0  0  0  0  0  0  0  0  0
    3.8800    4.0131    0.0000 H   0  0  0  0  0  0  0  0  0  0  0  0
    3.2970   -4.6503    0.0000 H   0  0  0  0  0  0  0  0  0  0  0  0
    4.0152   -5.1532    0.0000 H   0  0  0  0  0  0  0  0  0  0  0  0
    4.5182   -4.4350    0.0000 H   0  0  0  0  0  0  0  0  0  0  0  0
    3.0063   -2.6332    0.0000 H   0  0  0  0  0  0  0  0  0  0  0  0
    2.2116   -3.0038    0.0000 H   0  0  0  0  0  0  0  0  0  0  0  0
    2.5822   -3.7984    0.0000 H   0  0  0  0  0  0  0  0  0  0  0  0
   12.1264    2.2728    0.0000 H   0  0  0  0  0  0  0  0  0  0  0  0
   10.1325    1.6668    0.0000 H   0  0  0  0  0  0  0  0  0  0  0  0
   11.0369    4.3231    0.0000 H   0  0  0  0  0  0  0  0  0  0  0  0
   10.1900    4.5501    0.0000 H   0  0  0  0  0  0  0  0  0  0  0  0
    9.9631    3.7031    0.0000 H   0  0  0  0  0  0  0  0  0  0  0  0
    7.1760    4.1102    0.0000 H   0  0  0  0  0  0  0  0  0  0  0  0
    7.4030    4.9571    0.0000 H   0  0  0  0  0  0  0  0  0  0  0  0
    6.5560    5.1840    0.0000 H   0  0  0  0  0  0  0  0  0  0  0  0
    3.5826   -0.1049    0.0000 H   0  0  0  0  0  0  0  0  0  0  0  0
    2.8923    0.2936    0.0000 H   0  0  0  0  0  0  0  0  0  0  0  0
    2.0000    0.3030    0.0000 H   0  0  0  0  0  0  0  0  0  0  0  0
    1.3800   -0.3170    0.0000 H   0  0  0  0  0  0  0  0  0  0  0  0
    2.0000   -0.9370    0.0000 H   0  0  0  0  0  0  0  0  0  0  0  0
 16  1  1  6  0  0  0 
 22  1  1  6  0  0  0 
 19  2  1  6  0  0  0 
 26  2  1  6  0  0  0 
  3 22  1  0  0  0  0 
  3 34  1  0  0  0  0 
 18  4  1  1  0  0  0 
  4 83  1  0  0  0  0 
  5 26  1  0  0  0  0 
  5 37  1  0  0  0  0 
  6 39  1  0  0  0  0 
  6 40  1  0  0  0  0 
 24  7  1  1  0  0  0 
  7 52  1  0  0  0  0 
 28  8  1  6  0  0  0 
  8 53  1  0  0  0  0 
 32  9  1  6  0  0  0 
  9107  1  0  0  0  0 
 35 10  1  1  0  0  0 
 10114  1  0  0  0  0 
 36 11  1  1  0  0  0 
 11115  1  0  0  0  0 
 12 38  2  0  0  0  0 
 13 40  2  0  0  0  0 
 14 52  2  0  0  0  0 
 25 15  1  6  0  0  0 
 15 49  1  0  0  0  0 
 15 50  1  0  0  0  0 
 16 17  1  0  0  0  0 
 16 18  1  0  0  0  0 
 16 56  1  0  0  0  0 
 17 19  1  0  0  0  0 
 17 27  1  6  0  0  0 
 17 57  1  0  0  0  0 
 18 20  1  0  0  0  0 
 18 29  1  0  0  0  0 
 19 21  1  0  0  0  0 
 19 58  1  0  0  0  0 
 20 23  1  0  0  0  0 
 20 59  1  0  0  0  0 
 20 60  1  0  0  0  0 
 21 40  1  0  0  0  0 
 21 41  1  1  0  0  0 
 21 61  1  0  0  0  0 
 22 24  1  0  0  0  0 
 22 62  1  0  0  0  0 
 23 38  1  0  0  0  0 
 23 42  1  1  0  0  0 
 23 63  1  0  0  0  0 
 24 25  1  0  0  0  0 
 24 64  1  0  0  0  0 
 25 31  1  0  0  0  0 
 25 65  1  0  0  0  0 
 26 30  1  0  0  0  0 
 26 66  1  0  0  0  0 
 27 67  1  0  0  0  0 
 27 68  1  0  0  0  0 
 27 69  1  0  0  0  0 
 28 30  1  0  0  0  0 
 28 32  1  0  0  0  0 
 28 43  1  0  0  0  0 
 29 70  1  0  0  0  0 
 29 71  1  0  0  0  0 
 29 72  1  0  0  0  0 
 30 73  1  0  0  0  0 
 30 74  1  0  0  0  0 
 31 34  1  0  0  0  0 
 31 75  1  0  0  0  0 
 31 76  1  0  0  0  0 
 32 37  1  0  0  0  0 
 32 77  1  0  0  0  0 
 33 36  1  0  0  0  0 
 33 38  1  0  0  0  0 
 33 44  1  1  0  0  0 
 33 78  1  0  0  0  0 
 34 45  1  6  0  0  0 
 34 79  1  0  0  0  0 
 35 36  1  0  0  0  0 
 35 39  1  0  0  0  0 
 35 46  1  0  0  0  0 
 36 80  1  0  0  0  0 
 37 48  1  1  0  0  0 
 37 81  1  0  0  0  0 
 39 47  1  6  0  0  0 
 39 82  1  0  0  0  0 
 41 84  1  0  0  0  0 
 41 85  1  0  0  0  0 
 41 86  1  0  0  0  0 
 42 87  1  0  0  0  0 
 42 88  1  0  0  0  0 
 42 89  1  0  0  0  0 
 43 90  1  0  0  0  0 
 43 91  1  0  0  0  0 
 43 92  1  0  0  0  0 
 44 93  1  0  0  0  0 
 44 94  1  0  0  0  0 
 44 95  1  0  0  0  0 
 45 96  1  0  0  0  0 
 45 97  1  0  0  0  0 
 45 98  1  0  0  0  0 
 46 99  1  0  0  0  0 
 46100  1  0  0  0  0 
 46101  1  0  0  0  0 
 47 51  1  0  0  0  0 
 47102  1  0  0  0  0 
 47103  1  0  0  0  0 
 48104  1  0  0  0  0 
 48105  1  0  0  0  0 
 48106  1  0  0  0  0 
 49108  1  0  0  0  0 
 49109  1  0  0  0  0 
 49110  1  0  0  0  0 
 50111  1  0  0  0  0 
 50112  1  0  0  0  0 
 50113  1  0  0  0  0 
 51116  1  0  0  0  0 
 51117  1  0  0  0  0 
 51118  1  0  0  0  0 
 52 54  1  0  0  0  0 
 53119  1  0  0  0  0 
 53120  1  0  0  0  0 
 53121  1  0  0  0  0 
 54 55  1  0  0  0  0 
 54122  1  0  0  0  0 
 54123  1  0  0  0  0 
 55124  1  0  0  0  0 
 55125  1  0  0  0  0 
 55126  1  0  0  0  0 
M  END
> <cdk:Title>
71277

> <cdk:Remark>
null

> <PUBCHEM_COMPOUND_CID>
71277

> <PUBCHEM_COMPOUND_CANONICALIZED>
1

> <PUBCHEM_CACTVS_COMPLEXITY>
1300

> <PUBCHEM_CACTVS_HBOND_ACCEPTOR>
15

> <PUBCHEM_CACTVS_HBOND_DONOR>
4

> <PUBCHEM_CACTVS_ROTATABLE_BOND>
10

> <PUBCHEM_CACTVS_SUBSKEYS>
AAADcfB+PAAAAAAAAAAAAAAAAAAAAAAAAAAkSAAAAAAAAAAAAAAAHgAACAAADXzxgAcCCAMABgAIAICQCAAAAAAAAAAAAAEIAAATEBYAgAAnQAAHIAAXAAHK7PzOAAAAAAAAAAAAAAAAAAAAAAAAAAAAAA==

> <PUBCHEM_IUPAC_OPENEYE_NAME>
[(2S,3R,4S,6R)-4-(dimethylamino)-2-[[(3R,4S,5S,6R,7R,9R,11R,12R,13S,14R)-14-ethyl-7,12,13-trihydroxy-4-[(2R,4R,5S,6S)-5-hydroxy-4-methoxy-4,6-dimethyl-tetrahydropyran-2-yl]oxy-3,5,7,9,11,13-hexamethyl-2,10-dioxo-oxacyclotetradec-6-yl]oxy]-6-methyl-tetrahydropyran-3-yl] propanoate

> <PUBCHEM_IUPAC_CAS_NAME>
propanoic acid [(2S,3R,4S,6R)-4-(dimethylamino)-2-[[(3R,4S,5S,6R,7R,9R,11R,12R,13S,14R)-14-ethyl-7,12,13-trihydroxy-4-[[(2R,4R,5S,6S)-5-hydroxy-4-methoxy-4,6-dimethyl-2-oxanyl]oxy]-3,5,7,9,11,13-hexamethyl-2,10-dioxo-oxacyclotetradec-6-yl]oxy]-6-methyl-3-oxanyl] ester

> <PUBCHEM_IUPAC_NAME>
[(2S,3R,4S,6R)-4-(dimethylamino)-2-[[(3R,4S,5S,6R,7R,9R,11R,12R,13S,14R)-14-ethyl-7,12,13-trihydroxy-4-[(2R,4R,5S,6S)-5-hydroxy-4-methoxy-4,6-dimethyloxan-2-yl]oxy-3,5,7,9,11,13-hexamethyl-2,10-dioxo-oxacyclotetradec-6-yl]oxy]-6-methyloxan-3-yl] propanoate

> <PUBCHEM_IUPAC_SYSTEMATIC_NAME>
[(2S,3R,4S,6R)-4-(dimethylamino)-2-[[(3R,4S,5S,6R,7R,9R,11R,12R,13S,14R)-14-ethyl-4-[(2R,4R,5S,6S)-4-methoxy-4,6-dimethyl-5-oxidanyl-oxan-2-yl]oxy-3,5,7,9,11,13-hexamethyl-7,12,13-tris(oxidanyl)-2,10-bis(oxidanylidene)-1-oxacyclotetradec-6-yl]oxy]-6-methyl-oxan-3-yl] propanoate

> <PUBCHEM_IUPAC_TRADITIONAL_NAME>
propionic acid [(2S,3R,4S,6R)-4-(dimethylamino)-2-[[(3R,4S,5S,6R,7R,9R,11R,12R,13S,14R)-14-ethyl-7,12,13-trihydroxy-4-[(2R,4R,5S,6S)-5-hydroxy-4-methoxy-4,6-dimethyl-tetrahydropyran-2-yl]oxy-2,10-diketo-3,5,7,9,11,13-hexamethyl-oxacyclotetradec-6-yl]oxy]-6-methyl-tetrahydropyran-3-yl] ester

> <PUBCHEM_IUPAC_INCHI>
InChI=1S/C40H71NO14/c1-15-27-40(11,48)33(44)22(5)30(43)20(3)18-38(9,47)35(55-37-32(53-28(42)16-2)26(41(12)13)17-21(4)50-37)23(6)31(24(7)36(46)52-27)54-29-19-39(10,49-14)34(45)25(8)51-29/h20-27,29,31-35,37,44-45,47-48H,15-19H2,1-14H3/t20-,21-,22+,23+,24-,25+,26+,27-,29+,31+,32-,33-,34+,35-,37+,38-,39-,40-/m1/s1

> <PUBCHEM_IUPAC_INCHIKEY>
TYQXKHPOXXXCTP-CSLYCKPJSA-N

> <PUBCHEM_XLOGP3>
3.7

> <PUBCHEM_EXACT_MASS>
789.487456

> <PUBCHEM_MOLECULAR_FORMULA>
C40H71NO14

> <PUBCHEM_MOLECULAR_WEIGHT>
789.99004

> <PUBCHEM_OPENEYE_CAN_SMILES>
CCC1C(C(C(C(=O)C(CC(C(C(C(C(C(=O)O1)C)OC2CC(C(C(O2)C)O)(C)OC)C)OC3C(C(CC(O3)C)N(C)C)OC(=O)CC)(C)O)C)C)O)(C)O

> <PUBCHEM_OPENEYE_ISO_SMILES>
CC[C@@H]1[C@@]([C@@H]([C@H](C(=O)[C@@H](C[C@@]([C@@H]([C@H]([C@@H]([C@H](C(=O)O1)C)O[C@H]2C[C@@]([C@H]([C@@H](O2)C)O)(C)OC)C)O[C@H]3[C@@H]([C@H](C[C@H](O3)C)N(C)C)OC(=O)CC)(C)O)C)C)O)(C)O

> <PUBCHEM_CACTVS_TPSA>
200

> <PUBCHEM_MONOISOTOPIC_WEIGHT>
789.487456

> <PUBCHEM_TOTAL_CHARGE>
0

> <PUBCHEM_HEAVY_ATOM_COUNT>
55

> <PUBCHEM_ATOM_DEF_STEREO_COUNT>
18

> <PUBCHEM_ATOM_UDEF_STEREO_COUNT>
0

> <PUBCHEM_BOND_DEF_STEREO_COUNT>
0

> <PUBCHEM_BOND_UDEF_STEREO_COUNT>
0

> <PUBCHEM_ISOTOPIC_ATOM_COUNT>
0

> <PUBCHEM_COMPONENT_COUNT>
1

> <PUBCHEM_CACTVS_TAUTO_COUNT>
6

> <PUBCHEM_COORDINATE_TYPE>
1
5
255

> <PUBCHEM_BONDANNOTATIONS>
16  1  6
22  1  6
35  10  5
36  11  5
25  15  6
17  27  6
19  2  6
26  2  6
21  41  5
23  42  5
33  44  5
34  45  6
37  48  5
39  47  6
18  4  5
24  7  5
28  8  6
32  9  6

> <DRUG_ID>
w9

> <DRUG_NAME>
Erythromycin estolate

$$$$
39941
  CDK     0927151942
null
 33 35  0  0  0  0  0  0  0  0999 V2000
   12.3969   -0.5000    0.0000 Cl  0  0  0  0  0  0  0  0  0  0  0  0
    7.8133   -1.3047    0.0000 O   0  0  0  0  0  0  0  0  0  0  0  0
    2.5369    0.5000    0.0000 O   0  0  0  0  0  0  0  0  0  0  0  0
    3.4030   -1.0000    0.0000 O   0  0  0  0  0  0  0  0  0  0  0  0
    7.8133    0.3047    0.0000 N   0  0  0  0  0  0  0  0  0  0  0  0
    4.2690    0.5000    0.0000 C   0  0  3  0  0  0  0  0  0  0  0  0
    5.1350    0.0000    0.0000 C   0  0  0  0  0  0  0  0  0  0  0  0
    6.8671    0.0000    0.0000 C   0  0  0  0  0  0  0  0  0  0  0  0
    6.0010    0.5000    0.0000 C   0  0  0  0  0  0  0  0  0  0  0  0
    6.8671   -1.0000    0.0000 C   0  0  0  0  0  0  0  0  0  0  0  0
    5.1350   -1.0000    0.0000 C   0  0  0  0  0  0  0  0  0  0  0  0
    6.0010   -1.5000    0.0000 C   0  0  0  0  0  0  0  0  0  0  0  0
    4.2690    1.5000    0.0000 C   0  0  0  0  0  0  0  0  0  0  0  0
    8.3969   -0.5000    0.0000 C   0  0  0  0  0  0  0  0  0  0  0  0
    9.3969   -0.5000    0.0000 C   0  0  0  0  0  0  0  0  0  0  0  0
    3.4030    0.0000    0.0000 C   0  0  0  0  0  0  0  0  0  0  0  0
    9.8969   -1.3660    0.0000 C   0  0  0  0  0  0  0  0  0  0  0  0
    9.8969    0.3660    0.0000 C   0  0  0  0  0  0  0  0  0  0  0  0
   10.8969   -1.3660    0.0000 C   0  0  0  0  0  0  0  0  0  0  0  0
   10.8969    0.3660    0.0000 C   0  0  0  0  0  0  0  0  0  0  0  0
   11.3969   -0.5000    0.0000 C   0  0  0  0  0  0  0  0  0  0  0  0
    4.8059    0.8100    0.0000 H   0  0  0  0  0  0  0  0  0  0  0  0
    6.0010    1.1200    0.0000 H   0  0  0  0  0  0  0  0  0  0  0  0
    4.5981   -1.3100    0.0000 H   0  0  0  0  0  0  0  0  0  0  0  0
    6.0010   -2.1200    0.0000 H   0  0  0  0  0  0  0  0  0  0  0  0
    4.8890    1.5000    0.0000 H   0  0  0  0  0  0  0  0  0  0  0  0
    4.2690    2.1200    0.0000 H   0  0  0  0  0  0  0  0  0  0  0  0
    3.6490    1.5000    0.0000 H   0  0  0  0  0  0  0  0  0  0  0  0
    9.5869   -1.9030    0.0000 H   0  0  0  0  0  0  0  0  0  0  0  0
    9.5869    0.9030    0.0000 H   0  0  0  0  0  0  0  0  0  0  0  0
   11.2069   -1.9030    0.0000 H   0  0  0  0  0  0  0  0  0  0  0  0
   11.2069    0.9030    0.0000 H   0  0  0  0  0  0  0  0  0  0  0  0
    2.0000    0.1900    0.0000 H   0  0  0  0  0  0  0  0  0  0  0  0
  1 21  1  0  0  0  0 
  2 10  1  0  0  0  0 
  2 14  1  0  0  0  0 
  3 16  1  0  0  0  0 
  3 33  1  0  0  0  0 
  4 16  2  0  0  0  0 
  5  8  1  0  0  0  0 
  5 14  2  0  0  0  0 
  6  7  1  0  0  0  0 
  6 13  1  0  0  0  0 
  6 16  1  0  0  0  0 
  6 22  1  0  0  0  0 
  7  9  2  0  0  0  0 
  7 11  1  0  0  0  0 
  8  9  1  0  0  0  0 
  8 10  2  0  0  0  0 
  9 23  1  0  0  0  0 
 10 12  1  0  0  0  0 
 11 12  2  0  0  0  0 
 11 24  1  0  0  0  0 
 12 25  1  0  0  0  0 
 13 26  1  0  0  0  0 
 13 27  1  0  0  0  0 
 13 28  1  0  0  0  0 
 14 15  1  0  0  0  0 
 15 17  2  0  0  0  0 
 15 18  1  0  0  0  0 
 17 19  1  0  0  0  0 
 17 29  1  0  0  0  0 
 18 20  2  0  0  0  0 
 18 30  1  0  0  0  0 
 19 21  2  0  0  0  0 
 19 31  1  0  0  0  0 
 20 21  1  0  0  0  0 
 20 32  1  0  0  0  0 
M  END
> <cdk:Title>
39941

> <cdk:Remark>
null

> <PUBCHEM_COMPOUND_CID>
39941

> <PUBCHEM_COMPOUND_CANONICALIZED>
1

> <PUBCHEM_CACTVS_COMPLEXITY>
384

> <PUBCHEM_CACTVS_HBOND_ACCEPTOR>
4

> <PUBCHEM_CACTVS_HBOND_DONOR>
1

> <PUBCHEM_CACTVS_ROTATABLE_BOND>
3

> <PUBCHEM_CACTVS_SUBSKEYS>
AAADccB6MAAEAAAAAAAAAAAAAAAAAWAAAAAwYAAAAAAAAFgB9AAAHgIACAAADQ6BniAyzrIIFkCoA6XyXASCiCAvZyAImCG3btgOJrLFt7uPeSjkxBHY6YeY2fOepAAAQAAAEABIAACAAAAgAAAAAAAAAA==

> <PUBCHEM_IUPAC_OPENEYE_NAME>
2-[2-(4-chlorophenyl)-1,3-benzoxazol-5-yl]propanoic acid

> <PUBCHEM_IUPAC_CAS_NAME>
2-[2-(4-chlorophenyl)-1,3-benzoxazol-5-yl]propanoic acid

> <PUBCHEM_IUPAC_NAME>
2-[2-(4-chlorophenyl)-1,3-benzoxazol-5-yl]propanoic acid

> <PUBCHEM_IUPAC_SYSTEMATIC_NAME>
2-[2-(4-chlorophenyl)-1,3-benzoxazol-5-yl]propanoic acid

> <PUBCHEM_IUPAC_TRADITIONAL_NAME>
2-[2-(4-chlorophenyl)-1,3-benzoxazol-5-yl]propionic acid

> <PUBCHEM_IUPAC_INCHI>
InChI=1S/C16H12ClNO3/c1-9(16(19)20)11-4-7-14-13(8-11)18-15(21-14)10-2-5-12(17)6-3-10/h2-9H,1H3,(H,19,20)

> <PUBCHEM_IUPAC_INCHIKEY>
MITFXPHMIHQXPI-UHFFFAOYSA-N

> <PUBCHEM_XLOGP3_AA>
4.1

> <PUBCHEM_EXACT_MASS>
301.050571

> <PUBCHEM_MOLECULAR_FORMULA>
C16H12ClNO3

> <PUBCHEM_MOLECULAR_WEIGHT>
301.72438

> <PUBCHEM_OPENEYE_CAN_SMILES>
CC(C1=CC2=C(C=C1)OC(=N2)C3=CC=C(C=C3)Cl)C(=O)O

> <PUBCHEM_OPENEYE_ISO_SMILES>
CC(C1=CC2=C(C=C1)OC(=N2)C3=CC=C(C=C3)Cl)C(=O)O

> <PUBCHEM_CACTVS_TPSA>
63.3

> <PUBCHEM_MONOISOTOPIC_WEIGHT>
301.050571

> <PUBCHEM_TOTAL_CHARGE>
0

> <PUBCHEM_HEAVY_ATOM_COUNT>
21

> <PUBCHEM_ATOM_DEF_STEREO_COUNT>
0

> <PUBCHEM_ATOM_UDEF_STEREO_COUNT>
1

> <PUBCHEM_BOND_DEF_STEREO_COUNT>
0

> <PUBCHEM_BOND_UDEF_STEREO_COUNT>
0

> <PUBCHEM_ISOTOPIC_ATOM_COUNT>
0

> <PUBCHEM_COMPONENT_COUNT>
1

> <PUBCHEM_CACTVS_TAUTO_COUNT>
1

> <PUBCHEM_COORDINATE_TYPE>
1
5
255

> <PUBCHEM_BONDANNOTATIONS>
10  12  8
11  12  8
15  17  8
15  18  8
17  19  8
18  20  8
19  21  8
2  10  8
2  14  8
20  21  8
5  14  8
5  8  8
6  13  3
7  11  8
7  9  8
8  10  8
8  9  8

> <DRUG_ID>
w90

> <DRUG_NAME>
Benoxaprofen

$$$$
5702697
  CDK     0927151942
null
 51 53  0  0  0  0  0  0  0  0999 V2000
    5.5207    0.0000    0.0000 I   0  0  0  0  0  0  0  0  0  0  0  0
    3.2152    7.9843    0.0000 S   0  0  0  0  0  0  0  0  0  0  0  0
    7.8937    5.2831    0.0000 S   0  0  0  0  0  0  0  0  0  0  0  0
    3.2152    9.5937    0.0000 N   0  0  0  0  0  0  0  0  0  0  0  0
    9.2875    6.0879    0.0000 N   0  0  0  0  0  0  0  0  0  0  0  0
    2.2690    9.2890    0.0000 C   0  0  0  0  0  0  0  0  0  0  0  0
    9.4967    5.1161    0.0000 C   0  0  0  0  0  0  0  0  0  0  0  0
    3.5259   10.5443    0.0000 C   0  0  0  0  0  0  0  0  0  0  0  0
    3.7988    8.7890    0.0000 C   0  0  0  0  0  0  0  0  0  0  0  0
    9.9554    6.8322    0.0000 C   0  0  0  0  0  0  0  0  0  0  0  0
    8.2988    6.1909    0.0000 C   0  0  0  0  0  0  0  0  0  0  0  0
    2.2690    8.2890    0.0000 C   0  0  0  0  0  0  0  0  0  0  0  0
    8.6307    4.6161    0.0000 C   0  0  0  0  0  0  0  0  0  0  0  0
    1.4030    9.7890    0.0000 C   0  0  0  0  0  0  0  0  0  0  0  0
   10.3628    4.6161    0.0000 C   0  0  0  0  0  0  0  0  0  0  0  0
    1.4030    7.7890    0.0000 C   0  0  0  0  0  0  0  0  0  0  0  0
    8.6307    3.6160    0.0000 C   0  0  0  0  0  0  0  0  0  0  0  0
    2.8580   11.2886    0.0000 C   0  0  0  0  0  0  0  0  0  0  0  0
   10.9339    6.6260    0.0000 C   0  0  0  0  0  0  0  0  0  0  0  0
    4.7988    8.7890    0.0000 C   0  0  0  0  0  0  0  0  0  0  0  0
    7.7988    7.0570    0.0000 C   0  0  0  0  0  0  0  0  0  0  0  0
    0.5369    9.2890    0.0000 C   0  0  0  0  0  0  0  0  0  0  0  0
   10.3628    3.6160    0.0000 C   0  0  0  0  0  0  0  0  0  0  0  0
    0.5369    8.2890    0.0000 C   0  0  0  0  0  0  0  0  0  0  0  0
    9.4967    3.1160    0.0000 C   0  0  0  0  0  0  0  0  0  0  0  0
    5.2988    7.9230    0.0000 C   0  0  0  0  0  0  0  0  0  0  0  0
    6.7988    7.0570    0.0000 C   0  0  0  0  0  0  0  0  0  0  0  0
    6.2988    7.9230    0.0000 C   0  0  0  0  0  0  0  0  0  0  0  0
    4.0728   10.2522    0.0000 H   0  0  0  0  0  0  0  0  0  0  0  0
    3.9084   11.0322    0.0000 H   0  0  0  0  0  0  0  0  0  0  0  0
   10.1866    7.4074    0.0000 H   0  0  0  0  0  0  0  0  0  0  0  0
    9.4290    7.1598    0.0000 H   0  0  0  0  0  0  0  0  0  0  0  0
    1.4030   10.4090    0.0000 H   0  0  0  0  0  0  0  0  0  0  0  0
   10.8997    4.9260    0.0000 H   0  0  0  0  0  0  0  0  0  0  0  0
    1.4030    7.1690    0.0000 H   0  0  0  0  0  0  0  0  0  0  0  0
    8.0938    3.3060    0.0000 H   0  0  0  0  0  0  0  0  0  0  0  0
    3.3195   11.7026    0.0000 H   0  0  0  0  0  0  0  0  0  0  0  0
    2.4440   11.7500    0.0000 H   0  0  0  0  0  0  0  0  0  0  0  0
    2.3966   10.8745    0.0000 H   0  0  0  0  0  0  0  0  0  0  0  0
   10.8060    6.0193    0.0000 H   0  0  0  0  0  0  0  0  0  0  0  0
   11.5406    6.4981    0.0000 H   0  0  0  0  0  0  0  0  0  0  0  0
   11.0617    7.2326    0.0000 H   0  0  0  0  0  0  0  0  0  0  0  0
    5.1088    9.3259    0.0000 H   0  0  0  0  0  0  0  0  0  0  0  0
    8.1088    7.5939    0.0000 H   0  0  0  0  0  0  0  0  0  0  0  0
    0.0000    9.5990    0.0000 H   0  0  0  0  0  0  0  0  0  0  0  0
   10.8997    3.3060    0.0000 H   0  0  0  0  0  0  0  0  0  0  0  0
    0.0000    7.9790    0.0000 H   0  0  0  0  0  0  0  0  0  0  0  0
    9.4967    2.4960    0.0000 H   0  0  0  0  0  0  0  0  0  0  0  0
    4.9888    7.3860    0.0000 H   0  0  0  0  0  0  0  0  0  0  0  0
    6.4888    6.5200    0.0000 H   0  0  0  0  0  0  0  0  0  0  0  0
    6.6088    8.4599    0.0000 H   0  0  0  0  0  0  0  0  0  0  0  0
  2  9  1  0  0  0  0 
  2 12  1  0  0  0  0 
  3 11  1  0  0  0  0 
  3 13  1  0  0  0  0 
  4  6  1  0  0  0  0 
  4  8  1  0  0  0  0 
  4  9  2  0  0  0  0 
  5  7  1  0  0  0  0 
  5 10  1  0  0  0  0 
  5 11  1  0  0  0  0 
  6 12  1  0  0  0  0 
  6 14  2  0  0  0  0 
  7 13  1  0  0  0  0 
  7 15  2  0  0  0  0 
  8 18  1  0  0  0  0 
  8 29  1  0  0  0  0 
  8 30  1  0  0  0  0 
  9 20  1  0  0  0  0 
 10 19  1  0  0  0  0 
 10 31  1  0  0  0  0 
 10 32  1  0  0  0  0 
 11 21  2  0  0  0  0 
 12 16  2  0  0  0  0 
 13 17  2  0  0  0  0 
 14 22  1  0  0  0  0 
 14 33  1  0  0  0  0 
 15 23  1  0  0  0  0 
 15 34  1  0  0  0  0 
 16 24  1  0  0  0  0 
 16 35  1  0  0  0  0 
 17 25  1  0  0  0  0 
 17 36  1  0  0  0  0 
 18 37  1  0  0  0  0 
 18 38  1  0  0  0  0 
 18 39  1  0  0  0  0 
 19 40  1  0  0  0  0 
 19 41  1  0  0  0  0 
 19 42  1  0  0  0  0 
 20 26  2  0  0  0  0 
 20 43  1  0  0  0  0 
 21 27  1  0  0  0  0 
 21 44  1  0  0  0  0 
 22 24  2  0  0  0  0 
 22 45  1  0  0  0  0 
 23 25  2  0  0  0  0 
 23 46  1  0  0  0  0 
 24 47  1  0  0  0  0 
 25 48  1  0  0  0  0 
 26 28  1  0  0  0  0 
 26 49  1  0  0  0  0 
 27 28  2  0  0  0  0 
 27 50  1  0  0  0  0 
 28 51  1  0  0  0  0 
M  CHG  1   1  -1
M  CHG  1   4   1
M  END
> <cdk:Title>
5702697

> <cdk:Remark>
null

> <PUBCHEM_COMPOUND_CID>
5702697

> <PUBCHEM_COMPOUND_CANONICALIZED>
1

> <PUBCHEM_CACTVS_COMPLEXITY>
537

> <PUBCHEM_CACTVS_HBOND_ACCEPTOR>
4

> <PUBCHEM_CACTVS_HBOND_DONOR>
0

> <PUBCHEM_CACTVS_ROTATABLE_BOND>
5

> <PUBCHEM_CACTVS_SUBSKEYS>
AAADceB7AABgAgAAAAAAAAAAAAAAAWLAAAAwYAAAAAAAAFgB9AAAHAQAAAAACAjBVgQywbMMEAikASRiRACD8KBhCjhI2Dw4ZJgIIKLgkZGEIAhggADoyAcQAAAAAAAAAAAAAQAAAAAAAAACAAAAAAAAAA==

> <PUBCHEM_IUPAC_OPENEYE_NAME>
(2Z)-3-ethyl-2-[(2E,4E)-5-(3-ethyl-1,3-benzothiazol-3-ium-2-yl)penta-2,4-dienylidene]-1,3-benzothiazole;iodide

> <PUBCHEM_IUPAC_CAS_NAME>
(2Z)-3-ethyl-2-[(2E,4E)-5-(3-ethyl-1,3-benzothiazol-3-ium-2-yl)penta-2,4-dienylidene]-1,3-benzothiazole;iodide

> <PUBCHEM_IUPAC_NAME>
(2Z)-3-ethyl-2-[(2E,4E)-5-(3-ethyl-1,3-benzothiazol-3-ium-2-yl)penta-2,4-dienylidene]-1,3-benzothiazole;iodide

> <PUBCHEM_IUPAC_SYSTEMATIC_NAME>
(2Z)-3-ethyl-2-[(2E,4E)-5-(3-ethyl-1,3-benzothiazol-3-ium-2-yl)penta-2,4-dienylidene]-1,3-benzothiazole;iodide

> <PUBCHEM_IUPAC_TRADITIONAL_NAME>
(2Z)-3-ethyl-2-[(2E,4E)-5-(3-ethyl-1,3-benzothiazol-3-ium-2-yl)penta-2,4-dienylidene]-1,3-benzothiazole;iodide

> <PUBCHEM_IUPAC_INCHI>
InChI=1S/C23H23N2S2.HI/c1-3-24-18-12-8-10-14-20(18)26-22(24)16-6-5-7-17-23-25(4-2)19-13-9-11-15-21(19)27-23;/h5-17H,3-4H2,1-2H3;1H/q+1;/p-1

> <PUBCHEM_IUPAC_INCHIKEY>
MNQDKWZEUULFPX-UHFFFAOYSA-M

> <PUBCHEM_EXACT_MASS>
518.034739

> <PUBCHEM_MOLECULAR_FORMULA>
C23H23IN2S2

> <PUBCHEM_MOLECULAR_WEIGHT>
518.47659

> <PUBCHEM_OPENEYE_CAN_SMILES>
CCN1C2=CC=CC=C2SC1=CC=CC=CC3=[N+](C4=CC=CC=C4S3)CC.[I-]

> <PUBCHEM_OPENEYE_ISO_SMILES>
CCN\1C2=CC=CC=C2S/C1=C\C=C\C=C\C3=[N+](C4=CC=CC=C4S3)CC.[I-]

> <PUBCHEM_CACTVS_TPSA>
60.7

> <PUBCHEM_MONOISOTOPIC_WEIGHT>
518.034739

> <PUBCHEM_TOTAL_CHARGE>
0

> <PUBCHEM_HEAVY_ATOM_COUNT>
28

> <PUBCHEM_ATOM_DEF_STEREO_COUNT>
0

> <PUBCHEM_ATOM_UDEF_STEREO_COUNT>
0

> <PUBCHEM_BOND_DEF_STEREO_COUNT>
3

> <PUBCHEM_BOND_UDEF_STEREO_COUNT>
0

> <PUBCHEM_ISOTOPIC_ATOM_COUNT>
0

> <PUBCHEM_COMPONENT_COUNT>
2

> <PUBCHEM_CACTVS_TAUTO_COUNT>
1

> <PUBCHEM_COORDINATE_TYPE>
1
5
255

> <PUBCHEM_BONDANNOTATIONS>
12  16  8
13  17  8
14  22  8
15  23  8
16  24  8
17  25  8
2  12  8
2  9  8
22  24  8
23  25  8
4  6  8
4  9  8
6  12  8
6  14  8
7  13  8
7  15  8

> <DRUG_ID>
w91

> <DRUG_NAME>
Dithiazanine iodide

$$$$
71900
  CDK     0927151942
null
 26 27  0  0  0  0  0  0  0  0999 V2000
    4.4411    3.8807    0.0000 O   0  0  0  0  0  0  0  0  0  0  0  0
    5.8424    2.8626    0.0000 O   0  0  0  0  0  0  0  0  0  0  0  0
    4.6261   -3.8807    0.0000 O   0  0  0  0  0  0  0  0  0  0  0  0
    2.8940   -3.8807    0.0000 O   0  0  0  0  0  0  0  0  0  0  0  0
    3.7601    0.6193    0.0000 N   0  0  0  0  0  0  0  0  0  0  0  0
    3.2601    2.1581    0.0000 N   0  0  0  0  0  0  0  0  0  0  0  0
    4.8479    2.9672    0.0000 N   0  0  0  0  0  0  0  0  0  0  0  0
    3.7601   -3.3807    0.0000 N   0  0  0  0  0  0  0  0  0  0  0  0
    3.7601   -0.3807    0.0000 C   0  0  0  0  0  0  0  0  0  0  0  0
    2.9511    1.2071    0.0000 C   0  0  0  0  0  0  0  0  0  0  0  0
    4.5691    1.2071    0.0000 C   0  0  0  0  0  0  0  0  0  0  0  0
    2.8940   -0.8807    0.0000 C   0  0  0  0  0  0  0  0  0  0  0  0
    4.6261   -0.8807    0.0000 C   0  0  0  0  0  0  0  0  0  0  0  0
    4.2601    2.1581    0.0000 C   0  0  0  0  0  0  0  0  0  0  0  0
    2.0000    0.8981    0.0000 C   0  0  0  0  0  0  0  0  0  0  0  0
    2.8940   -1.8807    0.0000 C   0  0  0  0  0  0  0  0  0  0  0  0
    4.6261   -1.8807    0.0000 C   0  0  0  0  0  0  0  0  0  0  0  0
    3.7601   -2.3807    0.0000 C   0  0  0  0  0  0  0  0  0  0  0  0
    5.1588    1.0155    0.0000 H   0  0  0  0  0  0  0  0  0  0  0  0
    2.3571   -0.5707    0.0000 H   0  0  0  0  0  0  0  0  0  0  0  0
    5.1630   -0.5707    0.0000 H   0  0  0  0  0  0  0  0  0  0  0  0
    1.8084    1.4877    0.0000 H   0  0  0  0  0  0  0  0  0  0  0  0
    1.4103    0.7065    0.0000 H   0  0  0  0  0  0  0  0  0  0  0  0
    2.1916    0.3084    0.0000 H   0  0  0  0  0  0  0  0  0  0  0  0
    2.3571   -2.1907    0.0000 H   0  0  0  0  0  0  0  0  0  0  0  0
    5.1630   -2.1907    0.0000 H   0  0  0  0  0  0  0  0  0  0  0  0
  1  7  1  0  0  0  0 
  2  7  2  0  0  0  0 
  3  8  1  0  0  0  0 
  4  8  2  0  0  0  0 
  5  9  1  0  0  0  0 
  5 10  1  0  0  0  0 
  5 11  1  0  0  0  0 
  6 10  2  0  0  0  0 
  6 14  1  0  0  0  0 
  7 14  1  0  0  0  0 
  8 18  1  0  0  0  0 
  9 12  2  0  0  0  0 
  9 13  1  0  0  0  0 
 10 15  1  0  0  0  0 
 11 14  2  0  0  0  0 
 11 19  1  0  0  0  0 
 12 16  1  0  0  0  0 
 12 20  1  0  0  0  0 
 13 17  2  0  0  0  0 
 13 21  1  0  0  0  0 
 15 22  1  0  0  0  0 
 15 23  1  0  0  0  0 
 15 24  1  0  0  0  0 
 16 18  2  0  0  0  0 
 16 25  1  0  0  0  0 
 17 18  1  0  0  0  0 
 17 26  1  0  0  0  0 
M  CHG  1   1  -1
M  CHG  1   3  -1
M  CHG  1   7   1
M  CHG  1   8   1
M  END
> <cdk:Title>
71900

> <cdk:Remark>
null

> <PUBCHEM_COMPOUND_CID>
71900

> <PUBCHEM_COMPOUND_CANONICALIZED>
1

> <PUBCHEM_CACTVS_COMPLEXITY>
332

> <PUBCHEM_CACTVS_HBOND_ACCEPTOR>
5

> <PUBCHEM_CACTVS_HBOND_DONOR>
0

> <PUBCHEM_CACTVS_ROTATABLE_BOND>
1

> <PUBCHEM_CACTVS_SUBSKEYS>
AAADccBzuAAAAAAAAAAAAAAAAAAAAWAAAAAwAAAAAAAAAAABwAAAHAAEAAAACAjBEwQ/8JccUAChADZnZwCCgC0xEqApyAAYdIqIaGLAmZGUIAhogILIyCcQAAAAAACAAAAAAAAAAQAAAAAAAAAAAAAAAA==

> <PUBCHEM_IUPAC_OPENEYE_NAME>
2-methyl-4-nitro-1-(4-nitrophenyl)imidazole

> <PUBCHEM_IUPAC_CAS_NAME>
2-methyl-4-nitro-1-(4-nitrophenyl)imidazole

> <PUBCHEM_IUPAC_NAME>
2-methyl-4-nitro-1-(4-nitrophenyl)imidazole

> <PUBCHEM_IUPAC_SYSTEMATIC_NAME>
2-methyl-4-nitro-1-(4-nitrophenyl)imidazole

> <PUBCHEM_IUPAC_TRADITIONAL_NAME>
2-methyl-4-nitro-1-(4-nitrophenyl)imidazole

> <PUBCHEM_IUPAC_INCHI>
InChI=1S/C10H8N4O4/c1-7-11-10(14(17)18)6-12(7)8-2-4-9(5-3-8)13(15)16/h2-6H,1H3

> <PUBCHEM_IUPAC_INCHIKEY>
NMTBSNPBIGRZBL-UHFFFAOYSA-N

> <PUBCHEM_XLOGP3_AA>
2.1

> <PUBCHEM_EXACT_MASS>
248.054555

> <PUBCHEM_MOLECULAR_FORMULA>
C10H8N4O4

> <PUBCHEM_MOLECULAR_WEIGHT>
248.19492

> <PUBCHEM_OPENEYE_CAN_SMILES>
CC1=NC(=CN1C2=CC=C(C=C2)[N+](=O)[O-])[N+](=O)[O-]

> <PUBCHEM_OPENEYE_ISO_SMILES>
CC1=NC(=CN1C2=CC=C(C=C2)[N+](=O)[O-])[N+](=O)[O-]

> <PUBCHEM_CACTVS_TPSA>
110

> <PUBCHEM_MONOISOTOPIC_WEIGHT>
248.054555

> <PUBCHEM_TOTAL_CHARGE>
0

> <PUBCHEM_HEAVY_ATOM_COUNT>
18

> <PUBCHEM_ATOM_DEF_STEREO_COUNT>
0

> <PUBCHEM_ATOM_UDEF_STEREO_COUNT>
0

> <PUBCHEM_BOND_DEF_STEREO_COUNT>
0

> <PUBCHEM_BOND_UDEF_STEREO_COUNT>
0

> <PUBCHEM_ISOTOPIC_ATOM_COUNT>
0

> <PUBCHEM_COMPONENT_COUNT>
1

> <PUBCHEM_CACTVS_TAUTO_COUNT>
1

> <PUBCHEM_COORDINATE_TYPE>
1
5
255

> <PUBCHEM_BONDANNOTATIONS>
11  14  8
12  16  8
13  17  8
16  18  8
17  18  8
5  10  8
5  11  8
6  10  8
6  14  8
9  12  8
9  13  8

> <DRUG_ID>
w92

> <DRUG_NAME>
Nitrefazole

$$$$
4472
  CDK     0927151942
null
 40 41  0  0  0  0  0  0  0  0999 V2000
    6.3301    0.5000    0.0000 O   0  0  0  0  0  0  0  0  0  0  0  0
    2.0000   -2.0000    0.0000 O   0  0  0  0  0  0  0  0  0  0  0  0
    5.4641    2.0000    0.0000 N   0  0  0  0  0  0  0  0  0  0  0  0
    3.7320   -1.0000    0.0000 N   0  0  0  0  0  0  0  0  0  0  0  0
    3.7320   -2.0000    0.0000 N   0  0  0  0  0  0  0  0  0  0  0  0
    2.8660   -5.5000    0.0000 N   0  0  0  0  0  0  0  0  0  0  0  0
    4.5981    0.5000    0.0000 C   0  0  0  0  0  0  0  0  0  0  0  0
    4.5981   -0.5000    0.0000 C   0  0  0  0  0  0  0  0  0  0  0  0
    6.3301    2.5000    0.0000 C   0  0  0  0  0  0  0  0  0  0  0  0
    5.4641    1.0000    0.0000 C   0  0  0  0  0  0  0  0  0  0  0  0
    6.3301    3.5000    0.0000 C   0  0  0  0  0  0  0  0  0  0  0  0
    7.1962    4.0000    0.0000 C   0  0  0  0  0  0  0  0  0  0  0  0
    5.4641    4.0000    0.0000 C   0  0  0  0  0  0  0  0  0  0  0  0
    7.1962    5.0000    0.0000 C   0  0  0  0  0  0  0  0  0  0  0  0
    5.4641    5.0000    0.0000 C   0  0  0  0  0  0  0  0  0  0  0  0
    2.8660   -2.5000    0.0000 C   0  0  0  0  0  0  0  0  0  0  0  0
    6.3301    5.5000    0.0000 C   0  0  0  0  0  0  0  0  0  0  0  0
    2.8660   -3.5000    0.0000 C   0  0  0  0  0  0  0  0  0  0  0  0
    3.7320   -4.0000    0.0000 C   0  0  0  0  0  0  0  0  0  0  0  0
    2.0000   -4.0000    0.0000 C   0  0  0  0  0  0  0  0  0  0  0  0
    3.7320   -5.0000    0.0000 C   0  0  0  0  0  0  0  0  0  0  0  0
    2.0000   -5.0000    0.0000 C   0  0  0  0  0  0  0  0  0  0  0  0
    4.3860    1.0826    0.0000 H   0  0  0  0  0  0  0  0  0  0  0  0
    3.9875    0.3923    0.0000 H   0  0  0  0  0  0  0  0  0  0  0  0
    4.8101   -1.0826    0.0000 H   0  0  0  0  0  0  0  0  0  0  0  0
    5.2087   -0.3923    0.0000 H   0  0  0  0  0  0  0  0  0  0  0  0
    6.5422    1.9174    0.0000 H   0  0  0  0  0  0  0  0  0  0  0  0
    6.9407    2.6077    0.0000 H   0  0  0  0  0  0  0  0  0  0  0  0
    4.9272    2.3100    0.0000 H   0  0  0  0  0  0  0  0  0  0  0  0
    3.1951   -0.6900    0.0000 H   0  0  0  0  0  0  0  0  0  0  0  0
    7.7331    3.6900    0.0000 H   0  0  0  0  0  0  0  0  0  0  0  0
    4.9272    3.6900    0.0000 H   0  0  0  0  0  0  0  0  0  0  0  0
    4.2690   -2.3100    0.0000 H   0  0  0  0  0  0  0  0  0  0  0  0
    7.7331    5.3100    0.0000 H   0  0  0  0  0  0  0  0  0  0  0  0
    4.9272    5.3100    0.0000 H   0  0  0  0  0  0  0  0  0  0  0  0
    6.3301    6.1200    0.0000 H   0  0  0  0  0  0  0  0  0  0  0  0
    4.2690   -3.6900    0.0000 H   0  0  0  0  0  0  0  0  0  0  0  0
    1.4631   -3.6900    0.0000 H   0  0  0  0  0  0  0  0  0  0  0  0
    4.2690   -5.3100    0.0000 H   0  0  0  0  0  0  0  0  0  0  0  0
    1.4631   -5.3100    0.0000 H   0  0  0  0  0  0  0  0  0  0  0  0
  1 10  2  0  0  0  0 
  2 16  2  0  0  0  0 
  3  9  1  0  0  0  0 
  3 10  1  0  0  0  0 
  3 29  1  0  0  0  0 
  4  5  1  0  0  0  0 
  4  8  1  0  0  0  0 
  4 30  1  0  0  0  0 
  5 16  1  0  0  0  0 
  5 33  1  0  0  0  0 
  6 21  2  0  0  0  0 
  6 22  1  0  0  0  0 
  7  8  1  0  0  0  0 
  7 10  1  0  0  0  0 
  7 23  1  0  0  0  0 
  7 24  1  0  0  0  0 
  8 25  1  0  0  0  0 
  8 26  1  0  0  0  0 
  9 11  1  0  0  0  0 
  9 27  1  0  0  0  0 
  9 28  1  0  0  0  0 
 11 12  2  0  0  0  0 
 11 13  1  0  0  0  0 
 12 14  1  0  0  0  0 
 12 31  1  0  0  0  0 
 13 15  2  0  0  0  0 
 13 32  1  0  0  0  0 
 14 17  2  0  0  0  0 
 14 34  1  0  0  0  0 
 15 17  1  0  0  0  0 
 15 35  1  0  0  0  0 
 16 18  1  0  0  0  0 
 17 36  1  0  0  0  0 
 18 19  2  0  0  0  0 
 18 20  1  0  0  0  0 
 19 21  1  0  0  0  0 
 19 37  1  0  0  0  0 
 20 22  2  0  0  0  0 
 20 38  1  0  0  0  0 
 21 39  1  0  0  0  0 
 22 40  1  0  0  0  0 
M  END
> <cdk:Title>
4472

> <cdk:Remark>
null

> <PUBCHEM_COMPOUND_CID>
4472

> <PUBCHEM_COMPOUND_CANONICALIZED>
1

> <PUBCHEM_CACTVS_COMPLEXITY>
350

> <PUBCHEM_CACTVS_HBOND_ACCEPTOR>
4

> <PUBCHEM_CACTVS_HBOND_DONOR>
3

> <PUBCHEM_CACTVS_ROTATABLE_BOND>
7

> <PUBCHEM_CACTVS_SUBSKEYS>
AAADceB7sAAAAAAAAAAAAAAAAAAAAAAAAAA8QAAAAAAAAAABwAAAHgAYAAAADADBmgQ8gJLqEACoAjF3VACCgCA1AiIa+KE4ZNgIIHrA1ZGEIQhglgDIyYcUgAAOAAAAAAAAAAAAAAAAAAAAAAAAAAAAAA==

> <PUBCHEM_IUPAC_OPENEYE_NAME>
N-benzyl-3-[2-(pyridine-4-carbonyl)hydrazino]propanamide

> <PUBCHEM_IUPAC_CAS_NAME>
3-[[oxo(pyridin-4-yl)methyl]hydrazo]-N-(phenylmethyl)propanamide

> <PUBCHEM_IUPAC_NAME>
N-benzyl-3-[2-(pyridine-4-carbonyl)hydrazinyl]propanamide

> <PUBCHEM_IUPAC_SYSTEMATIC_NAME>
N-(phenylmethyl)-3-(2-pyridin-4-ylcarbonylhydrazinyl)propanamide

> <PUBCHEM_IUPAC_TRADITIONAL_NAME>
N-benzyl-3-(N'-isonicotinoylhydrazino)propionamide

> <PUBCHEM_IUPAC_INCHI>
InChI=1S/C16H18N4O2/c21-15(18-12-13-4-2-1-3-5-13)8-11-19-20-16(22)14-6-9-17-10-7-14/h1-7,9-10,19H,8,11-12H2,(H,18,21)(H,20,22)

> <PUBCHEM_IUPAC_INCHIKEY>
NOIIUHRQUVNIDD-UHFFFAOYSA-N

> <PUBCHEM_XLOGP3>
0.9

> <PUBCHEM_EXACT_MASS>
298.142976

> <PUBCHEM_MOLECULAR_FORMULA>
C16H18N4O2

> <PUBCHEM_MOLECULAR_WEIGHT>
298.33972

> <PUBCHEM_OPENEYE_CAN_SMILES>
C1=CC=C(C=C1)CNC(=O)CCNNC(=O)C2=CC=NC=C2

> <PUBCHEM_OPENEYE_ISO_SMILES>
C1=CC=C(C=C1)CNC(=O)CCNNC(=O)C2=CC=NC=C2

> <PUBCHEM_CACTVS_TPSA>
83.1

> <PUBCHEM_MONOISOTOPIC_WEIGHT>
298.142976

> <PUBCHEM_TOTAL_CHARGE>
0

> <PUBCHEM_HEAVY_ATOM_COUNT>
22

> <PUBCHEM_ATOM_DEF_STEREO_COUNT>
0

> <PUBCHEM_ATOM_UDEF_STEREO_COUNT>
0

> <PUBCHEM_BOND_DEF_STEREO_COUNT>
0

> <PUBCHEM_BOND_UDEF_STEREO_COUNT>
0

> <PUBCHEM_ISOTOPIC_ATOM_COUNT>
0

> <PUBCHEM_COMPONENT_COUNT>
1

> <PUBCHEM_CACTVS_TAUTO_COUNT>
8

> <PUBCHEM_COORDINATE_TYPE>
1
5
255

> <PUBCHEM_BONDANNOTATIONS>
11  12  8
11  13  8
12  14  8
13  15  8
14  17  8
15  17  8
18  19  8
18  20  8
19  21  8
20  22  8
6  21  8
6  22  8

> <DRUG_ID>
w94

> <DRUG_NAME>
Nialamide

$$$$
4723
  CDK     0927151942
null
 21 22  0  0  0  0  0  0  0  0999 V2000
    2.8954    0.6307    0.0000 O   0  0  0  0  0  0  0  0  0  0  0  0
    5.4645    0.3216    0.0000 O   0  0  0  0  0  0  0  0  0  0  0  0
    4.2044    1.5817    0.0000 N   0  0  0  0  0  0  0  0  0  0  0  0
    2.6166    2.3907    0.0000 N   0  0  0  0  0  0  0  0  0  0  0  0
    3.7044    0.0429    0.0000 C   0  0  3  0  0  0  0  0  0  0  0  0
    3.7044   -0.9571    0.0000 C   0  0  0  0  0  0  0  0  0  0  0  0
    4.5134    0.6307    0.0000 C   0  0  0  0  0  0  0  0  0  0  0  0
    2.8384   -1.4571    0.0000 C   0  0  0  0  0  0  0  0  0  0  0  0
    4.5704   -1.4571    0.0000 C   0  0  0  0  0  0  0  0  0  0  0  0
    3.2044    1.5817    0.0000 C   0  0  0  0  0  0  0  0  0  0  0  0
    2.8384   -2.4571    0.0000 C   0  0  0  0  0  0  0  0  0  0  0  0
    4.5704   -2.4571    0.0000 C   0  0  0  0  0  0  0  0  0  0  0  0
    3.7044   -2.9571    0.0000 C   0  0  0  0  0  0  0  0  0  0  0  0
    4.2568   -0.2386    0.0000 H   0  0  0  0  0  0  0  0  0  0  0  0
    2.3014   -1.1471    0.0000 H   0  0  0  0  0  0  0  0  0  0  0  0
    5.1074   -1.1471    0.0000 H   0  0  0  0  0  0  0  0  0  0  0  0
    2.3014   -2.7671    0.0000 H   0  0  0  0  0  0  0  0  0  0  0  0
    5.1074   -2.7671    0.0000 H   0  0  0  0  0  0  0  0  0  0  0  0
    3.7044   -3.5771    0.0000 H   0  0  0  0  0  0  0  0  0  0  0  0
    2.8688    2.9571    0.0000 H   0  0  0  0  0  0  0  0  0  0  0  0
    2.0000    2.3259    0.0000 H   0  0  0  0  0  0  0  0  0  0  0  0
  1  5  1  0  0  0  0 
  1 10  1  0  0  0  0 
  2  7  2  0  0  0  0 
  3  7  1  0  0  0  0 
  3 10  2  0  0  0  0 
  4 10  1  0  0  0  0 
  4 20  1  0  0  0  0 
  4 21  1  0  0  0  0 
  5  6  1  0  0  0  0 
  5  7  1  0  0  0  0 
  5 14  1  0  0  0  0 
  6  8  2  0  0  0  0 
  6  9  1  0  0  0  0 
  8 11  1  0  0  0  0 
  8 15  1  0  0  0  0 
  9 12  2  0  0  0  0 
  9 16  1  0  0  0  0 
 11 13  2  0  0  0  0 
 11 17  1  0  0  0  0 
 12 13  1  0  0  0  0 
 12 18  1  0  0  0  0 
 13 19  1  0  0  0  0 
M  END
> <cdk:Title>
4723

> <cdk:Remark>
null

> <PUBCHEM_COMPOUND_CID>
4723

> <PUBCHEM_COMPOUND_CANONICALIZED>
1

> <PUBCHEM_CACTVS_COMPLEXITY>
244

> <PUBCHEM_CACTVS_HBOND_ACCEPTOR>
2

> <PUBCHEM_CACTVS_HBOND_DONOR>
1

> <PUBCHEM_CACTVS_ROTATABLE_BOND>
1

> <PUBCHEM_CACTVS_SUBSKEYS>
AAADccBzMAAAAAAAAAAAAAAAAAAAAQAAAAAwAAAAAAAAAAABAAAAHgAQAAAADBShmAIxAIJABACoAiFSNAICAAEgAAAIiAFACIkKJjKAtR2JMAAkwAEIqAeYyKCOAAAAAAAAAAAAAAAAAAAAAAAAAAAAAA==

> <PUBCHEM_IUPAC_OPENEYE_NAME>
2-amino-5-phenyl-oxazol-4-one

> <PUBCHEM_IUPAC_CAS_NAME>
2-amino-5-phenyl-4-oxazolone

> <PUBCHEM_IUPAC_NAME>
2-amino-5-phenyl-1,3-oxazol-4-one

> <PUBCHEM_IUPAC_SYSTEMATIC_NAME>
2-azanyl-5-phenyl-1,3-oxazol-4-one

> <PUBCHEM_IUPAC_TRADITIONAL_NAME>
2-amino-5-phenyl-2-oxazolin-4-one

> <PUBCHEM_IUPAC_INCHI>
InChI=1S/C9H8N2O2/c10-9-11-8(12)7(13-9)6-4-2-1-3-5-6/h1-5,7H,(H2,10,11,12)

> <PUBCHEM_IUPAC_INCHIKEY>
NRNCYVBFPDDJNE-UHFFFAOYSA-N

> <PUBCHEM_XLOGP3_AA>
0.9

> <PUBCHEM_EXACT_MASS>
176.058578

> <PUBCHEM_MOLECULAR_FORMULA>
C9H8N2O2

> <PUBCHEM_MOLECULAR_WEIGHT>
176.17202

> <PUBCHEM_OPENEYE_CAN_SMILES>
C1=CC=C(C=C1)C2C(=O)N=C(O2)N

> <PUBCHEM_OPENEYE_ISO_SMILES>
C1=CC=C(C=C1)C2C(=O)N=C(O2)N

> <PUBCHEM_CACTVS_TPSA>
64.7

> <PUBCHEM_MONOISOTOPIC_WEIGHT>
176.058578

> <PUBCHEM_TOTAL_CHARGE>
0

> <PUBCHEM_HEAVY_ATOM_COUNT>
13

> <PUBCHEM_ATOM_DEF_STEREO_COUNT>
0

> <PUBCHEM_ATOM_UDEF_STEREO_COUNT>
1

> <PUBCHEM_BOND_DEF_STEREO_COUNT>
0

> <PUBCHEM_BOND_UDEF_STEREO_COUNT>
0

> <PUBCHEM_ISOTOPIC_ATOM_COUNT>
0

> <PUBCHEM_COMPONENT_COUNT>
1

> <PUBCHEM_CACTVS_TAUTO_COUNT>
5

> <PUBCHEM_COORDINATE_TYPE>
1
5
255

> <PUBCHEM_BONDANNOTATIONS>
11  13  8
12  13  8
5  6  3
6  8  8
6  9  8
8  11  8
9  12  8

> <DRUG_ID>
w95

> <DRUG_NAME>
Pemoline

$$$$
68723
  CDK     0927151942
null
 68 72  0  0  0  0  0  0  0  0999 V2000
    2.0000   -3.3901    0.0000 F   0  0  0  0  0  0  0  0  0  0  0  0
    2.3502   -4.7603    0.0000 F   0  0  0  0  0  0  0  0  0  0  0  0
    3.3702   -3.0399    0.0000 F   0  0  0  0  0  0  0  0  0  0  0  0
    5.5108    5.5540    0.0000 F   0  0  0  0  0  0  0  0  0  0  0  0
    5.8768    4.1880    0.0000 F   0  0  0  0  0  0  0  0  0  0  0  0
    6.8768    5.9200    0.0000 F   0  0  0  0  0  0  0  0  0  0  0  0
    9.8226   -0.9804    0.0000 O   0  0  0  0  0  0  0  0  0  0  0  0
    8.9740    0.5295    0.0000 O   0  0  0  0  0  0  0  0  0  0  0  0
    8.0676   -2.9603    0.0000 N   0  0  0  0  0  0  0  0  0  0  0  0
    6.3241   -3.9402    0.0000 N   0  0  0  0  0  0  0  0  0  0  0  0
    9.8573    2.0194    0.0000 N   0  0  0  0  0  0  0  0  0  0  0  0
    9.8689    5.0886    0.0000 N   0  0  0  0  0  0  0  0  0  0  0  0
    7.2074   -2.4503    0.0000 C   0  0  0  0  0  0  0  0  0  0  0  0
    8.0560   -3.9602    0.0000 C   0  0  0  0  0  0  0  0  0  0  0  0
    7.1842   -4.4501    0.0000 C   0  0  0  0  0  0  0  0  0  0  0  0
    6.3356   -2.9402    0.0000 C   0  0  0  0  0  0  0  0  0  0  0  0
    8.9393   -2.4703    0.0000 C   0  0  0  0  0  0  0  0  0  0  0  0
    5.4523   -4.4301    0.0000 C   0  0  0  0  0  0  0  0  0  0  0  0
    8.9509   -1.4704    0.0000 C   0  0  0  0  0  0  0  0  0  0  0  0
    4.5921   -3.9201    0.0000 C   0  0  0  0  0  0  0  0  0  0  0  0
    5.4407   -5.4300    0.0000 C   0  0  0  0  0  0  0  0  0  0  0  0
    3.7204   -4.4101    0.0000 C   0  0  0  0  0  0  0  0  0  0  0  0
    4.5690   -5.9200    0.0000 C   0  0  0  0  0  0  0  0  0  0  0  0
    3.7088   -5.4100    0.0000 C   0  0  0  0  0  0  0  0  0  0  0  0
    2.8602   -3.9001    0.0000 C   0  0  0  0  0  0  0  0  0  0  0  0
    9.8342    0.0195    0.0000 C   0  0  0  0  0  0  0  0  0  0  0  0
   10.7059    0.5095    0.0000 C   0  0  0  0  0  0  0  0  0  0  0  0
   10.7175    1.5094    0.0000 C   0  0  0  0  0  0  0  0  0  0  0  0
    9.8689    3.0193    0.0000 C   0  0  0  0  0  0  0  0  0  0  0  0
    8.9749    3.5540    0.0000 C   0  0  0  0  0  0  0  0  0  0  0  0
   11.5661   -0.0005    0.0000 C   0  0  0  0  0  0  0  0  0  0  0  0
    8.9749    4.5540    0.0000 C   0  0  0  0  0  0  0  0  0  0  0  0
   11.5892    1.9994    0.0000 C   0  0  0  0  0  0  0  0  0  0  0  0
    8.1089    3.0540    0.0000 C   0  0  0  0  0  0  0  0  0  0  0  0
   10.7749    3.5332    0.0000 C   0  0  0  0  0  0  0  0  0  0  0  0
   12.4379    0.4894    0.0000 C   0  0  0  0  0  0  0  0  0  0  0  0
    8.1089    5.0540    0.0000 C   0  0  0  0  0  0  0  0  0  0  0  0
    7.2429    4.5540    0.0000 C   0  0  0  0  0  0  0  0  0  0  0  0
   12.4494    1.4894    0.0000 C   0  0  0  0  0  0  0  0  0  0  0  0
    7.2429    3.5540    0.0000 C   0  0  0  0  0  0  0  0  0  0  0  0
   10.7749    4.5748    0.0000 C   0  0  0  0  0  0  0  0  0  0  0  0
    6.3768    5.0540    0.0000 C   0  0  0  0  0  0  0  0  0  0  0  0
    8.2613   -4.5452    0.0000 H   0  0  0  0  0  0  0  0  0  0  0  0
    8.6678   -3.8596    0.0000 H   0  0  0  0  0  0  0  0  0  0  0  0
    7.6114   -1.9800    0.0000 H   0  0  0  0  0  0  0  0  0  0  0  0
    6.8144   -1.9708    0.0000 H   0  0  0  0  0  0  0  0  0  0  0  0
    6.1303   -2.3552    0.0000 H   0  0  0  0  0  0  0  0  0  0  0  0
    5.7238   -3.0408    0.0000 H   0  0  0  0  0  0  0  0  0  0  0  0
    6.7802   -4.9204    0.0000 H   0  0  0  0  0  0  0  0  0  0  0  0
    7.5772   -4.9297    0.0000 H   0  0  0  0  0  0  0  0  0  0  0  0
    9.1446   -3.0553    0.0000 H   0  0  0  0  0  0  0  0  0  0  0  0
    9.5511   -2.3697    0.0000 H   0  0  0  0  0  0  0  0  0  0  0  0
    8.7456   -0.8853    0.0000 H   0  0  0  0  0  0  0  0  0  0  0  0
    8.3391   -1.5710    0.0000 H   0  0  0  0  0  0  0  0  0  0  0  0
    4.5993   -3.3002    0.0000 H   0  0  0  0  0  0  0  0  0  0  0  0
    5.9741   -5.7462    0.0000 H   0  0  0  0  0  0  0  0  0  0  0  0
    4.5618   -6.5400    0.0000 H   0  0  0  0  0  0  0  0  0  0  0  0
    3.1683   -5.7138    0.0000 H   0  0  0  0  0  0  0  0  0  0  0  0
    9.3168    1.7156    0.0000 H   0  0  0  0  0  0  0  0  0  0  0  0
   11.5589   -0.6205    0.0000 H   0  0  0  0  0  0  0  0  0  0  0  0
   11.5964    2.6193    0.0000 H   0  0  0  0  0  0  0  0  0  0  0  0
    8.1089    2.4340    0.0000 H   0  0  0  0  0  0  0  0  0  0  0  0
   11.3107    3.2211    0.0000 H   0  0  0  0  0  0  0  0  0  0  0  0
    8.1089    5.6740    0.0000 H   0  0  0  0  0  0  0  0  0  0  0  0
   12.9712    0.1732    0.0000 H   0  0  0  0  0  0  0  0  0  0  0  0
   12.9899    1.7931    0.0000 H   0  0  0  0  0  0  0  0  0  0  0  0
    6.7059    3.2440    0.0000 H   0  0  0  0  0  0  0  0  0  0  0  0
   11.3107    4.8869    0.0000 H   0  0  0  0  0  0  0  0  0  0  0  0
  1 25  1  0  0  0  0 
  2 25  1  0  0  0  0 
  3 25  1  0  0  0  0 
  4 42  1  0  0  0  0 
  5 42  1  0  0  0  0 
  6 42  1  0  0  0  0 
  7 19  1  0  0  0  0 
  7 26  1  0  0  0  0 
  8 26  2  0  0  0  0 
  9 13  1  0  0  0  0 
  9 14  1  0  0  0  0 
  9 17  1  0  0  0  0 
 10 15  1  0  0  0  0 
 10 16  1  0  0  0  0 
 10 18  1  0  0  0  0 
 11 28  1  0  0  0  0 
 11 29  1  0  0  0  0 
 11 59  1  0  0  0  0 
 12 32  2  0  0  0  0 
 12 41  1  0  0  0  0 
 13 16  1  0  0  0  0 
 13 45  1  0  0  0  0 
 13 46  1  0  0  0  0 
 14 15  1  0  0  0  0 
 14 43  1  0  0  0  0 
 14 44  1  0  0  0  0 
 15 49  1  0  0  0  0 
 15 50  1  0  0  0  0 
 16 47  1  0  0  0  0 
 16 48  1  0  0  0  0 
 17 19  1  0  0  0  0 
 17 51  1  0  0  0  0 
 17 52  1  0  0  0  0 
 18 20  1  0  0  0  0 
 18 21  2  0  0  0  0 
 19 53  1  0  0  0  0 
 19 54  1  0  0  0  0 
 20 22  2  0  0  0  0 
 20 55  1  0  0  0  0 
 21 23  1  0  0  0  0 
 21 56  1  0  0  0  0 
 22 24  1  0  0  0  0 
 22 25  1  0  0  0  0 
 23 24  2  0  0  0  0 
 23 57  1  0  0  0  0 
 24 58  1  0  0  0  0 
 26 27  1  0  0  0  0 
 27 28  1  0  0  0  0 
 27 31  2  0  0  0  0 
 28 33  2  0  0  0  0 
 29 30  2  0  0  0  0 
 29 35  1  0  0  0  0 
 30 32  1  0  0  0  0 
 30 34  1  0  0  0  0 
 31 36  1  0  0  0  0 
 31 60  1  0  0  0  0 
 32 37  1  0  0  0  0 
 33 39  1  0  0  0  0 
 33 61  1  0  0  0  0 
 34 40  2  0  0  0  0 
 34 62  1  0  0  0  0 
 35 41  2  0  0  0  0 
 35 63  1  0  0  0  0 
 36 39  2  0  0  0  0 
 36 65  1  0  0  0  0 
 37 38  2  0  0  0  0 
 37 64  1  0  0  0  0 
 38 40  1  0  0  0  0 
 38 42  1  0  0  0  0 
 39 66  1  0  0  0  0 
 40 67  1  0  0  0  0 
 41 68  1  0  0  0  0 
M  END
> <cdk:Title>
68723

> <cdk:Remark>
null

> <PUBCHEM_COMPOUND_CID>
68723

> <PUBCHEM_COMPOUND_CANONICALIZED>
1

> <PUBCHEM_CACTVS_COMPLEXITY>
881

> <PUBCHEM_CACTVS_HBOND_ACCEPTOR>
12

> <PUBCHEM_CACTVS_HBOND_DONOR>
1

> <PUBCHEM_CACTVS_ROTATABLE_BOND>
8

> <PUBCHEM_CACTVS_SUBSKEYS>
AAADceB7scAAAAAAAAAAAAAAAAAAAAAAAAA8eMECAAAAAACx9AAAHwAQAAAADAjhnhY8yPPIFACoAzT3TACCgCA1AiAI2CE4bNgKZvrA9dmXNYhm0AHY6ceYyOCOQAAAQAACAACAAACAAAQAAAAAAAAAAA==

> <PUBCHEM_IUPAC_OPENEYE_NAME>
2-[4-[3-(trifluoromethyl)phenyl]piperazin-1-yl]ethyl 2-[[7-(trifluoromethyl)-4-quinolyl]amino]benzoate

> <PUBCHEM_IUPAC_CAS_NAME>
2-[[7-(trifluoromethyl)-4-quinolinyl]amino]benzoic acid 2-[4-[3-(trifluoromethyl)phenyl]-1-piperazinyl]ethyl ester

> <PUBCHEM_IUPAC_NAME>
2-[4-[3-(trifluoromethyl)phenyl]piperazin-1-yl]ethyl 2-[[7-(trifluoromethyl)quinolin-4-yl]amino]benzoate

> <PUBCHEM_IUPAC_SYSTEMATIC_NAME>
2-[4-[3-(trifluoromethyl)phenyl]piperazin-1-yl]ethyl 2-[[7-(trifluoromethyl)quinolin-4-yl]amino]benzoate

> <PUBCHEM_IUPAC_TRADITIONAL_NAME>
2-[[7-(trifluoromethyl)-4-quinolyl]amino]benzoic acid 2-[4-[3-(trifluoromethyl)phenyl]piperazino]ethyl ester

> <PUBCHEM_IUPAC_INCHI>
InChI=1S/C30H26F6N4O2/c31-29(32,33)20-4-3-5-22(18-20)40-14-12-39(13-15-40)16-17-42-28(41)24-6-1-2-7-25(24)38-26-10-11-37-27-19-21(30(34,35)36)8-9-23(26)27/h1-11,18-19H,12-17H2,(H,37,38)

> <PUBCHEM_IUPAC_INCHIKEY>
NWGGKKGAFZIVBJ-UHFFFAOYSA-N

> <PUBCHEM_XLOGP3_AA>
7.5

> <PUBCHEM_EXACT_MASS>
588.195995

> <PUBCHEM_MOLECULAR_FORMULA>
C30H26F6N4O2

> <PUBCHEM_MOLECULAR_WEIGHT>
588.543459

> <PUBCHEM_OPENEYE_CAN_SMILES>
C1CN(CCN1CCOC(=O)C2=CC=CC=C2NC3=C4C=CC(=CC4=NC=C3)C(F)(F)F)C5=CC=CC(=C5)C(F)(F)F

> <PUBCHEM_OPENEYE_ISO_SMILES>
C1CN(CCN1CCOC(=O)C2=CC=CC=C2NC3=C4C=CC(=CC4=NC=C3)C(F)(F)F)C5=CC=CC(=C5)C(F)(F)F

> <PUBCHEM_CACTVS_TPSA>
57.7

> <PUBCHEM_MONOISOTOPIC_WEIGHT>
588.195995

> <PUBCHEM_TOTAL_CHARGE>
0

> <PUBCHEM_HEAVY_ATOM_COUNT>
42

> <PUBCHEM_ATOM_DEF_STEREO_COUNT>
0

> <PUBCHEM_ATOM_UDEF_STEREO_COUNT>
0

> <PUBCHEM_BOND_DEF_STEREO_COUNT>
0

> <PUBCHEM_BOND_UDEF_STEREO_COUNT>
0

> <PUBCHEM_ISOTOPIC_ATOM_COUNT>
0

> <PUBCHEM_COMPONENT_COUNT>
1

> <PUBCHEM_CACTVS_TAUTO_COUNT>
6

> <PUBCHEM_COORDINATE_TYPE>
1
5
255

> <PUBCHEM_BONDANNOTATIONS>
12  32  8
12  41  8
18  20  8
18  21  8
20  22  8
21  23  8
22  24  8
23  24  8
27  28  8
27  31  8
28  33  8
29  30  8
29  35  8
30  32  8
30  34  8
31  36  8
32  37  8
33  39  8
34  40  8
35  41  8
36  39  8
37  38  8
38  40  8

> <DRUG_ID>
w96

> <DRUG_NAME>
Antrafenine

$$$$
65679
  CDK     0927151942
null
 36 39  0  0  0  0  0  0  0  0999 V2000
    8.1282   -0.5209    0.0000 S   0  0  0  0  0  0  0  0  0  0  0  0
    5.5022    1.0138    0.0000 O   0  0  0  0  0  0  0  0  0  0  0  0
    8.6282   -1.3869    0.0000 O   0  0  0  0  0  0  0  0  0  0  0  0
    9.1282   -0.5209    0.0000 O   0  0  0  0  0  0  0  0  0  0  0  0
    5.5138   -2.0555    0.0000 O   0  0  0  0  0  0  0  0  0  0  0  0
    3.7320    1.0033    0.0000 O   0  0  0  0  0  0  0  0  0  0  0  0
    7.2622   -1.0209    0.0000 N   0  0  3  0  0  0  0  0  0  0  0  0
    4.5961   -0.5417    0.0000 N   0  0  0  0  0  0  0  0  0  0  0  0
    3.7359   -2.0450    0.0000 N   0  0  0  0  0  0  0  0  0  0  0  0
    6.3961   -0.5209    0.0000 C   0  0  0  0  0  0  0  0  0  0  0  0
    8.1282    0.4791    0.0000 C   0  0  0  0  0  0  0  0  0  0  0  0
    7.2622    0.9791    0.0000 C   0  0  0  0  0  0  0  0  0  0  0  0
    6.3961    0.4791    0.0000 C   0  0  0  0  0  0  0  0  0  0  0  0
    5.5022   -1.0556    0.0000 C   0  0  0  0  0  0  0  0  0  0  0  0
    7.2622   -2.0209    0.0000 C   0  0  0  0  0  0  0  0  0  0  0  0
    9.0382    0.9860    0.0000 C   0  0  0  0  0  0  0  0  0  0  0  0
    7.2461    2.0206    0.0000 C   0  0  0  0  0  0  0  0  0  0  0  0
    4.5961    0.4999    0.0000 C   0  0  0  0  0  0  0  0  0  0  0  0
    9.0462    2.0276    0.0000 C   0  0  0  0  0  0  0  0  0  0  0  0
    8.1441    2.5484    0.0000 C   0  0  0  0  0  0  0  0  0  0  0  0
    3.7320   -1.0450    0.0000 C   0  0  0  0  0  0  0  0  0  0  0  0
    2.8641   -0.5484    0.0000 C   0  0  0  0  0  0  0  0  0  0  0  0
    2.0000   -1.0517    0.0000 C   0  0  0  0  0  0  0  0  0  0  0  0
    2.8718   -2.5484    0.0000 C   0  0  0  0  0  0  0  0  0  0  0  0
    2.0038   -2.0517    0.0000 C   0  0  0  0  0  0  0  0  0  0  0  0
    6.6422   -2.0209    0.0000 H   0  0  0  0  0  0  0  0  0  0  0  0
    7.2622   -2.6409    0.0000 H   0  0  0  0  0  0  0  0  0  0  0  0
    7.8822   -2.0209    0.0000 H   0  0  0  0  0  0  0  0  0  0  0  0
    9.5715    0.6698    0.0000 H   0  0  0  0  0  0  0  0  0  0  0  0
    6.7056    2.3244    0.0000 H   0  0  0  0  0  0  0  0  0  0  0  0
    9.5844    2.3355    0.0000 H   0  0  0  0  0  0  0  0  0  0  0  0
    8.1418    3.1684    0.0000 H   0  0  0  0  0  0  0  0  0  0  0  0
    2.8617    0.0716    0.0000 H   0  0  0  0  0  0  0  0  0  0  0  0
    1.4619   -0.7438    0.0000 H   0  0  0  0  0  0  0  0  0  0  0  0
    2.8742   -3.1684    0.0000 H   0  0  0  0  0  0  0  0  0  0  0  0
    1.4681   -2.3638    0.0000 H   0  0  0  0  0  0  0  0  0  0  0  0
  1  3  2  0  0  0  0 
  1  4  2  0  0  0  0 
  1  7  1  0  0  0  0 
  1 11  1  0  0  0  0 
  2 13  1  0  0  0  0 
  2 18  1  0  0  0  0 
  5 14  2  0  0  0  0 
  6 18  2  0  0  0  0 
  7 10  1  0  0  0  0 
  7 15  1  0  0  0  0 
  8 14  1  0  0  0  0 
  8 18  1  0  0  0  0 
  8 21  1  0  0  0  0 
  9 21  1  0  0  0  0 
  9 24  2  0  0  0  0 
 10 13  2  0  0  0  0 
 10 14  1  0  0  0  0 
 11 12  1  0  0  0  0 
 11 16  2  0  0  0  0 
 12 13  1  0  0  0  0 
 12 17  2  0  0  0  0 
 15 26  1  0  0  0  0 
 15 27  1  0  0  0  0 
 15 28  1  0  0  0  0 
 16 19  1  0  0  0  0 
 16 29  1  0  0  0  0 
 17 20  1  0  0  0  0 
 17 30  1  0  0  0  0 
 19 20  2  0  0  0  0 
 19 31  1  0  0  0  0 
 20 32  1  0  0  0  0 
 21 22  2  0  0  0  0 
 22 23  1  0  0  0  0 
 22 33  1  0  0  0  0 
 23 25  2  0  0  0  0 
 23 34  1  0  0  0  0 
 24 25  1  0  0  0  0 
 24 35  1  0  0  0  0 
 25 36  1  0  0  0  0 
M  END
> <cdk:Title>
65679

> <cdk:Remark>
null

> <PUBCHEM_COMPOUND_CID>
65679

> <PUBCHEM_COMPOUND_CANONICALIZED>
1

> <PUBCHEM_CACTVS_COMPLEXITY>
741

> <PUBCHEM_CACTVS_HBOND_ACCEPTOR>
7

> <PUBCHEM_CACTVS_HBOND_DONOR>
0

> <PUBCHEM_CACTVS_ROTATABLE_BOND>
1

> <PUBCHEM_CACTVS_SUBSKEYS>
AAADccB7OABAAAAAAAAAAAAAAAAAAAAAAAA8QIEAAAAAAACxwAAAHgQAQAAADAzB2gQ/uZMIFAKoAjd3fHDCiDkxIiAJ2Di4bNiIZuLAubmcMAhsxSPI6SeQwCAOAAAAAAAEAAAAAAAAAAgAAAAAAAAAAA==

> <PUBCHEM_IUPAC_OPENEYE_NAME>
5-methyl-6,6-dioxo-3-(2-pyridyl)-[1,3]oxazino[5,6-c][1,2]benzothiazine-2,4-dione

> <PUBCHEM_IUPAC_CAS_NAME>
5-methyl-6,6-dioxo-3-(2-pyridinyl)-[1,3]oxazino[5,6-c][1,2]benzothiazine-2,4-dione

> <PUBCHEM_IUPAC_NAME>
5-methyl-6,6-dioxo-3-pyridin-2-yl-[1,3]oxazino[5,6-c][1,2]benzothiazine-2,4-dione

> <PUBCHEM_IUPAC_SYSTEMATIC_NAME>
5-methyl-6,6-bis(oxidanylidene)-3-pyridin-2-yl-[1,3]oxazino[5,6-c][1,2]benzothiazine-2,4-dione

> <PUBCHEM_IUPAC_TRADITIONAL_NAME>
6,6-diketo-5-methyl-3-(2-pyridyl)-[1,3]oxazino[5,6-c][1,2]benzothiazine-2,4-quinone

> <PUBCHEM_IUPAC_INCHI>
InChI=1S/C16H11N3O5S/c1-18-13-14(10-6-2-3-7-11(10)25(18,22)23)24-16(21)19(15(13)20)12-8-4-5-9-17-12/h2-9H,1H3

> <PUBCHEM_IUPAC_INCHIKEY>
OEHFRZLKGRKFAS-UHFFFAOYSA-N

> <PUBCHEM_XLOGP3_AA>
1.2

> <PUBCHEM_EXACT_MASS>
357.041941

> <PUBCHEM_MOLECULAR_FORMULA>
C16H11N3O5S

> <PUBCHEM_MOLECULAR_WEIGHT>
357.34064

> <PUBCHEM_OPENEYE_CAN_SMILES>
CN1C2=C(C3=CC=CC=C3S1(=O)=O)OC(=O)N(C2=O)C4=CC=CC=N4

> <PUBCHEM_OPENEYE_ISO_SMILES>
CN1C2=C(C3=CC=CC=C3S1(=O)=O)OC(=O)N(C2=O)C4=CC=CC=N4

> <PUBCHEM_CACTVS_TPSA>
105

> <PUBCHEM_MONOISOTOPIC_WEIGHT>
357.041941

> <PUBCHEM_TOTAL_CHARGE>
0

> <PUBCHEM_HEAVY_ATOM_COUNT>
25

> <PUBCHEM_ATOM_DEF_STEREO_COUNT>
0

> <PUBCHEM_ATOM_UDEF_STEREO_COUNT>
0

> <PUBCHEM_BOND_DEF_STEREO_COUNT>
0

> <PUBCHEM_BOND_UDEF_STEREO_COUNT>
0

> <PUBCHEM_ISOTOPIC_ATOM_COUNT>
0

> <PUBCHEM_COMPONENT_COUNT>
1

> <PUBCHEM_CACTVS_TAUTO_COUNT>
1

> <PUBCHEM_COORDINATE_TYPE>
1
5
255

> <PUBCHEM_BONDANNOTATIONS>
10  13  8
10  14  8
11  12  8
11  16  8
12  17  8
16  19  8
17  20  8
19  20  8
2  13  8
2  18  8
21  22  8
22  23  8
23  25  8
24  25  8
8  14  8
8  18  8
9  21  8
9  24  8

> <DRUG_ID>
w97

> <DRUG_NAME>
Droxicam

$$$$
34870
  CDK     0927151942
null
 52 54  0  0  0  0  0  0  0  0999 V2000
    2.8660   -4.4403    0.0000 O   0  0  0  0  0  0  0  0  0  0  0  0
    2.0000   -2.9403    0.0000 O   0  0  0  0  0  0  0  0  0  0  0  0
    6.3302    1.5597    0.0000 N   0  0  0  0  0  0  0  0  0  0  0  0
    6.3302    2.5597    0.0000 C   0  0  0  0  0  0  0  0  0  0  0  0
    5.4292    2.9936    0.0000 C   0  0  0  0  0  0  0  0  0  0  0  0
    7.2311    2.9935    0.0000 C   0  0  0  0  0  0  0  0  0  0  0  0
    5.8302    4.7503    0.0000 C   0  0  0  0  0  0  0  0  0  0  0  0
    6.8302    4.7503    0.0000 C   0  0  0  0  0  0  0  0  0  0  0  0
    5.2067    3.9685    0.0000 C   0  0  0  0  0  0  0  0  0  0  0  0
    7.4537    3.9685    0.0000 C   0  0  0  0  0  0  0  0  0  0  0  0
    5.4641    1.0597    0.0000 C   0  0  0  0  0  0  0  0  0  0  0  0
    5.4641    0.0597    0.0000 C   0  0  0  0  0  0  0  0  0  0  0  0
    4.5981   -0.4403    0.0000 C   0  0  0  0  0  0  0  0  0  0  0  0
    7.9837    2.2734    0.0000 C   0  0  0  0  0  0  0  0  0  0  0  0
    4.6766    2.2734    0.0000 C   0  0  0  0  0  0  0  0  0  0  0  0
    4.5981   -1.4403    0.0000 C   0  0  0  0  0  0  0  0  0  0  0  0
    8.4442    4.2908    0.0000 C   0  0  0  0  0  0  0  0  0  0  0  0
    4.2162    4.2908    0.0000 C   0  0  0  0  0  0  0  0  0  0  0  0
    3.7321   -1.9403    0.0000 C   0  0  0  0  0  0  0  0  0  0  0  0
    3.6790    2.5727    0.0000 C   0  0  0  0  0  0  0  0  0  0  0  0
    8.9814    2.5727    0.0000 C   0  0  0  0  0  0  0  0  0  0  0  0
    9.2132    3.5882    0.0000 C   0  0  0  0  0  0  0  0  0  0  0  0
    3.4472    3.5882    0.0000 C   0  0  0  0  0  0  0  0  0  0  0  0
    3.7320   -2.9403    0.0000 C   0  0  0  0  0  0  0  0  0  0  0  0
    2.8660   -3.4403    0.0000 C   0  0  0  0  0  0  0  0  0  0  0  0
    6.8551    2.2298    0.0000 H   0  0  0  0  0  0  0  0  0  0  0  0
    7.3888    5.0193    0.0000 H   0  0  0  0  0  0  0  0  0  0  0  0
    6.6922    5.3548    0.0000 H   0  0  0  0  0  0  0  0  0  0  0  0
    5.9681    5.3548    0.0000 H   0  0  0  0  0  0  0  0  0  0  0  0
    5.2716    5.0193    0.0000 H   0  0  0  0  0  0  0  0  0  0  0  0
    6.8671    1.2497    0.0000 H   0  0  0  0  0  0  0  0  0  0  0  0
    5.2521    1.6423    0.0000 H   0  0  0  0  0  0  0  0  0  0  0  0
    4.8536    0.9520    0.0000 H   0  0  0  0  0  0  0  0  0  0  0  0
    5.6762   -0.5229    0.0000 H   0  0  0  0  0  0  0  0  0  0  0  0
    6.0747    0.1673    0.0000 H   0  0  0  0  0  0  0  0  0  0  0  0
    4.3860    0.1423    0.0000 H   0  0  0  0  0  0  0  0  0  0  0  0
    3.9875   -0.5480    0.0000 H   0  0  0  0  0  0  0  0  0  0  0  0
    7.8387    1.6705    0.0000 H   0  0  0  0  0  0  0  0  0  0  0  0
    4.8216    1.6706    0.0000 H   0  0  0  0  0  0  0  0  0  0  0  0
    4.8101   -2.0229    0.0000 H   0  0  0  0  0  0  0  0  0  0  0  0
    5.2087   -1.3327    0.0000 H   0  0  0  0  0  0  0  0  0  0  0  0
    8.5751    4.8968    0.0000 H   0  0  0  0  0  0  0  0  0  0  0  0
    4.0852    4.8968    0.0000 H   0  0  0  0  0  0  0  0  0  0  0  0
    3.5200   -1.3577    0.0000 H   0  0  0  0  0  0  0  0  0  0  0  0
    3.1215   -2.0480    0.0000 H   0  0  0  0  0  0  0  0  0  0  0  0
    9.4342    2.1492    0.0000 H   0  0  0  0  0  0  0  0  0  0  0  0
    3.2261    2.1493    0.0000 H   0  0  0  0  0  0  0  0  0  0  0  0
    2.8554    3.7733    0.0000 H   0  0  0  0  0  0  0  0  0  0  0  0
    9.8049    3.7732    0.0000 H   0  0  0  0  0  0  0  0  0  0  0  0
    3.9441   -3.5229    0.0000 H   0  0  0  0  0  0  0  0  0  0  0  0
    4.3426   -2.8327    0.0000 H   0  0  0  0  0  0  0  0  0  0  0  0
    2.3291   -4.7503    0.0000 H   0  0  0  0  0  0  0  0  0  0  0  0
  1 25  1  0  0  0  0 
  1 52  1  0  0  0  0 
  2 25  2  0  0  0  0 
  3  4  1  0  0  0  0 
  3 11  1  0  0  0  0 
  3 31  1  0  0  0  0 
  4  5  1  0  0  0  0 
  4  6  1  0  0  0  0 
  4 26  1  0  0  0  0 
  5  9  1  0  0  0  0 
  5 15  2  0  0  0  0 
  6 10  1  0  0  0  0 
  6 14  2  0  0  0  0 
  7  8  1  0  0  0  0 
  7  9  1  0  0  0  0 
  7 29  1  0  0  0  0 
  7 30  1  0  0  0  0 
  8 10  1  0  0  0  0 
  8 27  1  0  0  0  0 
  8 28  1  0  0  0  0 
  9 18  2  0  0  0  0 
 10 17  2  0  0  0  0 
 11 12  1  0  0  0  0 
 11 32  1  0  0  0  0 
 11 33  1  0  0  0  0 
 12 13  1  0  0  0  0 
 12 34  1  0  0  0  0 
 12 35  1  0  0  0  0 
 13 16  1  0  0  0  0 
 13 36  1  0  0  0  0 
 13 37  1  0  0  0  0 
 14 21  1  0  0  0  0 
 14 38  1  0  0  0  0 
 15 20  1  0  0  0  0 
 15 39  1  0  0  0  0 
 16 19  1  0  0  0  0 
 16 40  1  0  0  0  0 
 16 41  1  0  0  0  0 
 17 22  1  0  0  0  0 
 17 42  1  0  0  0  0 
 18 23  1  0  0  0  0 
 18 43  1  0  0  0  0 
 19 24  1  0  0  0  0 
 19 44  1  0  0  0  0 
 19 45  1  0  0  0  0 
 20 23  2  0  0  0  0 
 20 47  1  0  0  0  0 
 21 22  2  0  0  0  0 
 21 46  1  0  0  0  0 
 22 49  1  0  0  0  0 
 23 48  1  0  0  0  0 
 24 25  1  0  0  0  0 
 24 50  1  0  0  0  0 
 24 51  1  0  0  0  0 
M  END
> <cdk:Title>
34870

> <cdk:Remark>
null

> <PUBCHEM_COMPOUND_CID>
34870

> <PUBCHEM_COMPOUND_CANONICALIZED>
1

> <PUBCHEM_CACTVS_COMPLEXITY>
387

> <PUBCHEM_CACTVS_HBOND_ACCEPTOR>
3

> <PUBCHEM_CACTVS_HBOND_DONOR>
2

> <PUBCHEM_CACTVS_ROTATABLE_BOND>
8

> <PUBCHEM_CACTVS_SUBSKEYS>
AAADceB6MAAAAAAAAAAAAAAAAAAAAAAAAAAwYAAABgAAAAABQAAAHgAQCAAADCjBmAQwCILAAgCIAiDSCACCAAAgAAAIiIEIBIgIIDKAkRGEYAhkkACIiAeYyOCOgAAAAAAQAAAAAAAAACAAAAAAAAAAAA==

> <PUBCHEM_IUPAC_OPENEYE_NAME>
7-(6,11-dihydro-5H-dibenzo[1,2-a:1',2'-e][7]annulen-11-ylamino)heptanoic acid

> <PUBCHEM_IUPAC_CAS_NAME>
7-(6,11-dihydro-5H-dibenzo[1,2-a:1',2'-e][7]annulen-11-ylamino)heptanoic acid

> <PUBCHEM_IUPAC_NAME>
7-(6,11-dihydro-5H-dibenzo[1,2-a:1',2'-e][7]annulen-11-ylamino)heptanoic acid

> <PUBCHEM_IUPAC_SYSTEMATIC_NAME>
7-(6,11-dihydro-5H-dibenzo[1,2-a:1',2'-e][7]annulen-11-ylamino)heptanoic acid

> <PUBCHEM_IUPAC_TRADITIONAL_NAME>
7-(6,11-dihydro-5H-dibenzo[1,2-a:1',2'-e]cyclohepten-11-ylamino)enanthic acid

> <PUBCHEM_IUPAC_INCHI>
InChI=1S/C22H27NO2/c24-21(25)13-3-1-2-8-16-23-22-19-11-6-4-9-17(19)14-15-18-10-5-7-12-20(18)22/h4-7,9-12,22-23H,1-3,8,13-16H2,(H,24,25)

> <PUBCHEM_IUPAC_INCHIKEY>
ONNOFKFOZAJDHT-UHFFFAOYSA-N

> <PUBCHEM_XLOGP3_AA>
2.1

> <PUBCHEM_EXACT_MASS>
337.204179

> <PUBCHEM_MOLECULAR_FORMULA>
C22H27NO2

> <PUBCHEM_MOLECULAR_WEIGHT>
337.45528

> <PUBCHEM_OPENEYE_CAN_SMILES>
C1CC2=CC=CC=C2C(C3=CC=CC=C31)NCCCCCCC(=O)O

> <PUBCHEM_OPENEYE_ISO_SMILES>
C1CC2=CC=CC=C2C(C3=CC=CC=C31)NCCCCCCC(=O)O

> <PUBCHEM_CACTVS_TPSA>
49.3

> <PUBCHEM_MONOISOTOPIC_WEIGHT>
337.204179

> <PUBCHEM_TOTAL_CHARGE>
0

> <PUBCHEM_HEAVY_ATOM_COUNT>
25

> <PUBCHEM_ATOM_DEF_STEREO_COUNT>
0

> <PUBCHEM_ATOM_UDEF_STEREO_COUNT>
0

> <PUBCHEM_BOND_DEF_STEREO_COUNT>
0

> <PUBCHEM_BOND_UDEF_STEREO_COUNT>
0

> <PUBCHEM_ISOTOPIC_ATOM_COUNT>
0

> <PUBCHEM_COMPONENT_COUNT>
1

> <PUBCHEM_CACTVS_TAUTO_COUNT>
1

> <PUBCHEM_COORDINATE_TYPE>
1
5
255

> <PUBCHEM_BONDANNOTATIONS>
10  17  8
14  21  8
15  20  8
17  22  8
18  23  8
20  23  8
21  22  8
5  15  8
5  9  8
6  10  8
6  14  8
9  18  8

> <DRUG_ID>
w98

> <DRUG_NAME>
Amineptine

$$$$
6761
  CDK     0927151942
null
 51 54  0  0  0  0  0  0  0  0999 V2000
   10.7263   -1.8635    0.0000 Cl  0  0  0  0  0  0  0  0  0  0  0  0
    7.1962   -3.8877    0.0000 S   0  0  0  0  0  0  0  0  0  0  0  0
    2.0000    2.1123    0.0000 O   0  0  0  0  0  0  0  0  0  0  0  0
    5.4641    1.1123    0.0000 N   0  0  0  0  0  0  0  0  0  0  0  0
    7.1962   -1.8877    0.0000 N   0  0  0  0  0  0  0  0  0  0  0  0
    2.8660    3.6123    0.0000 N   0  0  0  0  0  0  0  0  0  0  0  0
    3.7320    2.1123    0.0000 C   0  0  0  0  0  0  0  0  0  0  0  0
    4.5981    2.6123    0.0000 C   0  0  0  0  0  0  0  0  0  0  0  0
    3.7320    1.1123    0.0000 C   0  0  0  0  0  0  0  0  0  0  0  0
    5.4641    2.1123    0.0000 C   0  0  0  0  0  0  0  0  0  0  0  0
    4.5981    0.6123    0.0000 C   0  0  0  0  0  0  0  0  0  0  0  0
    6.3301    0.6123    0.0000 C   0  0  0  0  0  0  0  0  0  0  0  0
    6.3301   -0.3877    0.0000 C   0  0  0  0  0  0  0  0  0  0  0  0
    7.1962   -0.8877    0.0000 C   0  0  0  0  0  0  0  0  0  0  0  0
    2.8660    2.6123    0.0000 C   0  0  0  0  0  0  0  0  0  0  0  0
    8.0622   -2.3877    0.0000 C   0  0  0  0  0  0  0  0  0  0  0  0
    6.3301   -2.3877    0.0000 C   0  0  0  0  0  0  0  0  0  0  0  0
    8.0622   -3.3877    0.0000 C   0  0  0  0  0  0  0  0  0  0  0  0
    6.3301   -3.3877    0.0000 C   0  0  0  0  0  0  0  0  0  0  0  0
    8.9561   -1.8530    0.0000 C   0  0  0  0  0  0  0  0  0  0  0  0
    5.4362   -1.8530    0.0000 C   0  0  0  0  0  0  0  0  0  0  0  0
    8.9561   -3.9223    0.0000 C   0  0  0  0  0  0  0  0  0  0  0  0
    5.4362   -3.9223    0.0000 C   0  0  0  0  0  0  0  0  0  0  0  0
    9.8622   -2.3668    0.0000 C   0  0  0  0  0  0  0  0  0  0  0  0
    4.5301   -2.3668    0.0000 C   0  0  0  0  0  0  0  0  0  0  0  0
    9.8622   -3.4085    0.0000 C   0  0  0  0  0  0  0  0  0  0  0  0
    4.5301   -3.4085    0.0000 C   0  0  0  0  0  0  0  0  0  0  0  0
    3.7320    2.7323    0.0000 H   0  0  0  0  0  0  0  0  0  0  0  0
    4.9966    3.0873    0.0000 H   0  0  0  0  0  0  0  0  0  0  0  0
    3.1215    1.2200    0.0000 H   0  0  0  0  0  0  0  0  0  0  0  0
    3.5200    0.5297    0.0000 H   0  0  0  0  0  0  0  0  0  0  0  0
    4.1996    3.0873    0.0000 H   0  0  0  0  0  0  0  0  0  0  0  0
    6.0747    2.0047    0.0000 H   0  0  0  0  0  0  0  0  0  0  0  0
    5.6762    2.6949    0.0000 H   0  0  0  0  0  0  0  0  0  0  0  0
    4.1996    0.1374    0.0000 H   0  0  0  0  0  0  0  0  0  0  0  0
    4.9966    0.1374    0.0000 H   0  0  0  0  0  0  0  0  0  0  0  0
    6.9407    0.5047    0.0000 H   0  0  0  0  0  0  0  0  0  0  0  0
    6.5422    1.1949    0.0000 H   0  0  0  0  0  0  0  0  0  0  0  0
    5.7196   -0.2800    0.0000 H   0  0  0  0  0  0  0  0  0  0  0  0
    6.1181   -0.9703    0.0000 H   0  0  0  0  0  0  0  0  0  0  0  0
    7.8067   -0.9953    0.0000 H   0  0  0  0  0  0  0  0  0  0  0  0
    7.4082   -0.3051    0.0000 H   0  0  0  0  0  0  0  0  0  0  0  0
    2.3291    3.9223    0.0000 H   0  0  0  0  0  0  0  0  0  0  0  0
    3.4030    3.9223    0.0000 H   0  0  0  0  0  0  0  0  0  0  0  0
    8.9490   -1.2330    0.0000 H   0  0  0  0  0  0  0  0  0  0  0  0
    5.4434   -1.2330    0.0000 H   0  0  0  0  0  0  0  0  0  0  0  0
    8.9490   -4.5423    0.0000 H   0  0  0  0  0  0  0  0  0  0  0  0
    5.4434   -4.5423    0.0000 H   0  0  0  0  0  0  0  0  0  0  0  0
    3.9944   -2.0548    0.0000 H   0  0  0  0  0  0  0  0  0  0  0  0
   10.3979   -3.7206    0.0000 H   0  0  0  0  0  0  0  0  0  0  0  0
    3.9944   -3.7206    0.0000 H   0  0  0  0  0  0  0  0  0  0  0  0
  1 24  1  0  0  0  0 
  2 18  1  0  0  0  0 
  2 19  1  0  0  0  0 
  3 15  2  0  0  0  0 
  4 10  1  0  0  0  0 
  4 11  1  0  0  0  0 
  4 12  1  0  0  0  0 
  5 14  1  0  0  0  0 
  5 16  1  0  0  0  0 
  5 17  1  0  0  0  0 
  6 15  1  0  0  0  0 
  6 43  1  0  0  0  0 
  6 44  1  0  0  0  0 
  7  8  1  0  0  0  0 
  7  9  1  0  0  0  0 
  7 15  1  0  0  0  0 
  7 28  1  0  0  0  0 
  8 10  1  0  0  0  0 
  8 29  1  0  0  0  0 
  8 32  1  0  0  0  0 
  9 11  1  0  0  0  0 
  9 30  1  0  0  0  0 
  9 31  1  0  0  0  0 
 10 33  1  0  0  0  0 
 10 34  1  0  0  0  0 
 11 35  1  0  0  0  0 
 11 36  1  0  0  0  0 
 12 13  1  0  0  0  0 
 12 37  1  0  0  0  0 
 12 38  1  0  0  0  0 
 13 14  1  0  0  0  0 
 13 39  1  0  0  0  0 
 13 40  1  0  0  0  0 
 14 41  1  0  0  0  0 
 14 42  1  0  0  0  0 
 16 18  2  0  0  0  0 
 16 20  1  0  0  0  0 
 17 19  1  0  0  0  0 
 17 21  2  0  0  0  0 
 18 22  1  0  0  0  0 
 19 23  2  0  0  0  0 
 20 24  2  0  0  0  0 
 20 45  1  0  0  0  0 
 21 25  1  0  0  0  0 
 21 46  1  0  0  0  0 
 22 26  2  0  0  0  0 
 22 47  1  0  0  0  0 
 23 27  1  0  0  0  0 
 23 48  1  0  0  0  0 
 24 26  1  0  0  0  0 
 25 27  2  0  0  0  0 
 25 49  1  0  0  0  0 
 26 50  1  0  0  0  0 
 27 51  1  0  0  0  0 
M  END
> <cdk:Title>
6761

> <cdk:Remark>
null

> <PUBCHEM_COMPOUND_CID>
6761

> <PUBCHEM_COMPOUND_CANONICALIZED>
1

> <PUBCHEM_CACTVS_COMPLEXITY>
514

> <PUBCHEM_CACTVS_HBOND_ACCEPTOR>
4

> <PUBCHEM_CACTVS_HBOND_DONOR>
1

> <PUBCHEM_CACTVS_ROTATABLE_BOND>
5

> <PUBCHEM_CACTVS_SUBSKEYS>
AAADceB7IABEAAAAAAAAAAAAAAAAAAAAAAA8eIEAAAAAAACxQAAAHgYQAAAADQrB0CQwwYNAAAiIACVSUACCAAAhDxAIiB0IZogIIHLh05GEIAhgkADoyAcUAAAKAAIAAAIAAQAABAAABAACAAAAAAAAAA==

> <PUBCHEM_IUPAC_OPENEYE_NAME>
1-[3-(2-chlorophenothiazin-10-yl)propyl]piperidine-4-carboxamide

> <PUBCHEM_IUPAC_CAS_NAME>
1-[3-(2-chloro-10-phenothiazinyl)propyl]-4-piperidinecarboxamide

> <PUBCHEM_IUPAC_NAME>
1-[3-(2-chlorophenothiazin-10-yl)propyl]piperidine-4-carboxamide

> <PUBCHEM_IUPAC_SYSTEMATIC_NAME>
1-[3-(2-chloranylphenothiazin-10-yl)propyl]piperidine-4-carboxamide

> <PUBCHEM_IUPAC_TRADITIONAL_NAME>
1-[3-(2-chlorophenothiazin-10-yl)propyl]isonipecotamide

> <PUBCHEM_IUPAC_INCHI>
InChI=1S/C21H24ClN3OS/c22-16-6-7-20-18(14-16)25(17-4-1-2-5-19(17)27-20)11-3-10-24-12-8-15(9-13-24)21(23)26/h1-2,4-7,14-15H,3,8-13H2,(H2,23,26)

> <PUBCHEM_IUPAC_INCHIKEY>
OSJJYEUEJRVVOD-UHFFFAOYSA-N

> <PUBCHEM_XLOGP3>
4.4

> <PUBCHEM_EXACT_MASS>
401.132861

> <PUBCHEM_MOLECULAR_FORMULA>
C21H24ClN3OS

> <PUBCHEM_MOLECULAR_WEIGHT>
401.95276

> <PUBCHEM_OPENEYE_CAN_SMILES>
C1CN(CCC1C(=O)N)CCCN2C3=CC=CC=C3SC4=C2C=C(C=C4)Cl

> <PUBCHEM_OPENEYE_ISO_SMILES>
C1CN(CCC1C(=O)N)CCCN2C3=CC=CC=C3SC4=C2C=C(C=C4)Cl

> <PUBCHEM_CACTVS_TPSA>
74.9

> <PUBCHEM_MONOISOTOPIC_WEIGHT>
401.132861

> <PUBCHEM_TOTAL_CHARGE>
0

> <PUBCHEM_HEAVY_ATOM_COUNT>
27

> <PUBCHEM_ATOM_DEF_STEREO_COUNT>
0

> <PUBCHEM_ATOM_UDEF_STEREO_COUNT>
0

> <PUBCHEM_BOND_DEF_STEREO_COUNT>
0

> <PUBCHEM_BOND_UDEF_STEREO_COUNT>
0

> <PUBCHEM_ISOTOPIC_ATOM_COUNT>
0

> <PUBCHEM_COMPONENT_COUNT>
1

> <PUBCHEM_CACTVS_TAUTO_COUNT>
3

> <PUBCHEM_COORDINATE_TYPE>
1
5
255

> <PUBCHEM_BONDANNOTATIONS>
16  18  8
16  20  8
17  19  8
17  21  8
18  22  8
19  23  8
20  24  8
21  25  8
22  26  8
23  27  8
24  26  8
25  27  8

> <DRUG_ID>
w99

> <DRUG_NAME>
Pipamazine

$$$$
33625
  CDK     0927151942
null
 51 54  0  0  0  0  0  0  0  0999 V2000
    8.8564    1.5118    0.0000 O   0  0  0  0  0  0  0  0  0  0  0  0
    6.2781   -0.8016    0.0000 N   0  0  0  0  0  0  0  0  0  0  0  0
    7.2101    2.0499    0.0000 N   0  0  0  0  0  0  0  0  0  0  0  0
    4.6783   -4.5184    0.0000 N   0  0  0  0  0  0  0  0  0  0  0  0
    6.8994    1.0994    0.0000 C   0  0  0  0  0  0  0  0  0  0  0  0
    5.9209    0.8932    0.0000 C   0  0  0  0  0  0  0  0  0  0  0  0
    7.5673    0.3551    0.0000 C   0  0  0  0  0  0  0  0  0  0  0  0
    7.2566   -0.5954    0.0000 C   0  0  0  0  0  0  0  0  0  0  0  0
    5.6103   -0.0573    0.0000 C   0  0  0  0  0  0  0  0  0  0  0  0
    5.9674   -1.7522    0.0000 C   0  0  0  0  0  0  0  0  0  0  0  0
    4.9889   -1.9584    0.0000 C   0  0  0  0  0  0  0  0  0  0  0  0
    4.6783   -2.9089    0.0000 C   0  0  0  0  0  0  0  0  0  0  0  0
    3.7320   -3.2136    0.0000 C   0  0  0  0  0  0  0  0  0  0  0  0
    8.1886    2.2561    0.0000 C   0  0  0  0  0  0  0  0  0  0  0  0
    5.2619   -3.7136    0.0000 C   0  0  0  0  0  0  0  0  0  0  0  0
    3.7320   -4.2136    0.0000 C   0  0  0  0  0  0  0  0  0  0  0  0
    8.4993    3.2066    0.0000 C   0  0  0  0  0  0  0  0  0  0  0  0
    2.8660   -2.7136    0.0000 C   0  0  0  0  0  0  0  0  0  0  0  0
    2.8660   -4.7136    0.0000 C   0  0  0  0  0  0  0  0  0  0  0  0
    2.0000   -3.2136    0.0000 C   0  0  0  0  0  0  0  0  0  0  0  0
    2.0000   -4.2136    0.0000 C   0  0  0  0  0  0  0  0  0  0  0  0
    7.8314    3.9510    0.0000 C   0  0  0  0  0  0  0  0  0  0  0  0
    9.4778    3.4129    0.0000 C   0  0  0  0  0  0  0  0  0  0  0  0
    8.1421    4.9015    0.0000 C   0  0  0  0  0  0  0  0  0  0  0  0
    9.7884    4.3634    0.0000 C   0  0  0  0  0  0  0  0  0  0  0  0
    9.1206    5.1077    0.0000 C   0  0  0  0  0  0  0  0  0  0  0  0
    7.5061    1.2272    0.0000 H   0  0  0  0  0  0  0  0  0  0  0  0
    8.1142    0.0631    0.0000 H   0  0  0  0  0  0  0  0  0  0  0  0
    7.9498    0.8430    0.0000 H   0  0  0  0  0  0  0  0  0  0  0  0
    5.9004    1.5128    0.0000 H   0  0  0  0  0  0  0  0  0  0  0  0
    5.3071    0.9805    0.0000 H   0  0  0  0  0  0  0  0  0  0  0  0
    7.2772   -1.2151    0.0000 H   0  0  0  0  0  0  0  0  0  0  0  0
    7.8704   -0.6828    0.0000 H   0  0  0  0  0  0  0  0  0  0  0  0
    5.0633    0.2347    0.0000 H   0  0  0  0  0  0  0  0  0  0  0  0
    5.2277   -0.5453    0.0000 H   0  0  0  0  0  0  0  0  0  0  0  0
    5.9880   -2.3718    0.0000 H   0  0  0  0  0  0  0  0  0  0  0  0
    6.5812   -1.8395    0.0000 H   0  0  0  0  0  0  0  0  0  0  0  0
    4.9684   -1.3387    0.0000 H   0  0  0  0  0  0  0  0  0  0  0  0
    4.3751   -1.8710    0.0000 H   0  0  0  0  0  0  0  0  0  0  0  0
    6.7960    2.5114    0.0000 H   0  0  0  0  0  0  0  0  0  0  0  0
    5.8819   -3.7136    0.0000 H   0  0  0  0  0  0  0  0  0  0  0  0
    4.8709   -5.1077    0.0000 H   0  0  0  0  0  0  0  0  0  0  0  0
    2.8660   -2.0936    0.0000 H   0  0  0  0  0  0  0  0  0  0  0  0
    2.8660   -5.3336    0.0000 H   0  0  0  0  0  0  0  0  0  0  0  0
    1.4631   -2.9036    0.0000 H   0  0  0  0  0  0  0  0  0  0  0  0
    1.4631   -4.5236    0.0000 H   0  0  0  0  0  0  0  0  0  0  0  0
    7.2247    3.8231    0.0000 H   0  0  0  0  0  0  0  0  0  0  0  0
    9.8918    2.9514    0.0000 H   0  0  0  0  0  0  0  0  0  0  0  0
    7.7280    5.3629    0.0000 H   0  0  0  0  0  0  0  0  0  0  0  0
   10.3951    4.4912    0.0000 H   0  0  0  0  0  0  0  0  0  0  0  0
    9.3132    5.6970    0.0000 H   0  0  0  0  0  0  0  0  0  0  0  0
  1 14  2  0  0  0  0 
  2  8  1  0  0  0  0 
  2  9  1  0  0  0  0 
  2 10  1  0  0  0  0 
  3  5  1  0  0  0  0 
  3 14  1  0  0  0  0 
  3 40  1  0  0  0  0 
  4 15  1  0  0  0  0 
  4 16  1  0  0  0  0 
  4 42  1  0  0  0  0 
  5  6  1  0  0  0  0 
  5  7  1  0  0  0  0 
  5 27  1  0  0  0  0 
  6  9  1  0  0  0  0 
  6 30  1  0  0  0  0 
  6 31  1  0  0  0  0 
  7  8  1  0  0  0  0 
  7 28  1  0  0  0  0 
  7 29  1  0  0  0  0 
  8 32  1  0  0  0  0 
  8 33  1  0  0  0  0 
  9 34  1  0  0  0  0 
  9 35  1  0  0  0  0 
 10 11  1  0  0  0  0 
 10 36  1  0  0  0  0 
 10 37  1  0  0  0  0 
 11 12  1  0  0  0  0 
 11 38  1  0  0  0  0 
 11 39  1  0  0  0  0 
 12 13  1  0  0  0  0 
 12 15  2  0  0  0  0 
 13 16  1  0  0  0  0 
 13 18  2  0  0  0  0 
 14 17  1  0  0  0  0 
 15 41  1  0  0  0  0 
 16 19  2  0  0  0  0 
 17 22  2  0  0  0  0 
 17 23  1  0  0  0  0 
 18 20  1  0  0  0  0 
 18 43  1  0  0  0  0 
 19 21  1  0  0  0  0 
 19 44  1  0  0  0  0 
 20 21  2  0  0  0  0 
 20 45  1  0  0  0  0 
 21 46  1  0  0  0  0 
 22 24  1  0  0  0  0 
 22 47  1  0  0  0  0 
 23 25  2  0  0  0  0 
 23 48  1  0  0  0  0 
 24 26  2  0  0  0  0 
 24 49  1  0  0  0  0 
 25 26  1  0  0  0  0 
 25 50  1  0  0  0  0 
 26 51  1  0  0  0  0 
M  END
> <cdk:Title>
33625

> <cdk:Remark>
null

> <PUBCHEM_COMPOUND_CID>
33625

> <PUBCHEM_COMPOUND_CANONICALIZED>
1

> <PUBCHEM_CACTVS_COMPLEXITY>
454

> <PUBCHEM_CACTVS_HBOND_ACCEPTOR>
2

> <PUBCHEM_CACTVS_HBOND_DONOR>
2

> <PUBCHEM_CACTVS_ROTATABLE_BOND>
5

> <PUBCHEM_CACTVS_SUBSKEYS>
AAADceB7IAAAAAAAAAAAAAAAAAAAAWAAAAA8YIAAAAAAAFgB9AAAHgAQAAAADCjBngQ8wPPJkACoAzV3VACCgCA1AiAI2aE4ZNgIIPLA1ZGEIQhglgDIyYcYiMCOgAAAAAACAAAAAAAAAAQAAAAAAAAAAA==

> <PUBCHEM_IUPAC_OPENEYE_NAME>
N-[1-[2-(1H-indol-3-yl)ethyl]-4-piperidyl]benzamide

> <PUBCHEM_IUPAC_CAS_NAME>
N-[1-[2-(1H-indol-3-yl)ethyl]-4-piperidinyl]benzamide

> <PUBCHEM_IUPAC_NAME>
N-[1-[2-(1H-indol-3-yl)ethyl]piperidin-4-yl]benzamide

> <PUBCHEM_IUPAC_SYSTEMATIC_NAME>
N-[1-[2-(1H-indol-3-yl)ethyl]piperidin-4-yl]benzamide

> <PUBCHEM_IUPAC_TRADITIONAL_NAME>
N-[1-[2-(1H-indol-3-yl)ethyl]-4-piperidyl]benzamide

> <PUBCHEM_IUPAC_INCHI>
InChI=1S/C22H25N3O/c26-22(17-6-2-1-3-7-17)24-19-11-14-25(15-12-19)13-10-18-16-23-21-9-5-4-8-20(18)21/h1-9,16,19,23H,10-15H2,(H,24,26)

> <PUBCHEM_IUPAC_INCHIKEY>
JXZZEXZZKAWDSP-UHFFFAOYSA-N

> <PUBCHEM_XLOGP3>
4.1

> <PUBCHEM_EXACT_MASS>
347.199762

> <PUBCHEM_MOLECULAR_FORMULA>
C22H25N3O

> <PUBCHEM_MOLECULAR_WEIGHT>
347.4534

> <PUBCHEM_OPENEYE_CAN_SMILES>
C1CN(CCC1NC(=O)C2=CC=CC=C2)CCC3=CNC4=CC=CC=C43

> <PUBCHEM_OPENEYE_ISO_SMILES>
C1CN(CCC1NC(=O)C2=CC=CC=C2)CCC3=CNC4=CC=CC=C43

> <PUBCHEM_CACTVS_TPSA>
48.1

> <PUBCHEM_MONOISOTOPIC_WEIGHT>
347.199762

> <PUBCHEM_TOTAL_CHARGE>
0

> <PUBCHEM_HEAVY_ATOM_COUNT>
26

> <PUBCHEM_ATOM_DEF_STEREO_COUNT>
0

> <PUBCHEM_ATOM_UDEF_STEREO_COUNT>
0

> <PUBCHEM_BOND_DEF_STEREO_COUNT>
0

> <PUBCHEM_BOND_UDEF_STEREO_COUNT>
0

> <PUBCHEM_ISOTOPIC_ATOM_COUNT>
0

> <PUBCHEM_COMPONENT_COUNT>
1

> <PUBCHEM_CACTVS_TAUTO_COUNT>
22

> <PUBCHEM_COORDINATE_TYPE>
1
5
255

> <PUBCHEM_BONDANNOTATIONS>
12  13  8
12  15  8
13  16  8
13  18  8
16  19  8
17  22  8
17  23  8
18  20  8
19  21  8
20  21  8
22  24  8
23  25  8
24  26  8
25  26  8
4  15  8
4  16  8

> <DRUG_ID>
w264

> <DRUG_NAME>
Indoramin

$$$$
3606
  CDK     0927151942
null
 42 43  0  0  0  0  0  0  0  0999 V2000
    4.5981    4.2500    0.0000 O   0  0  0  0  0  0  0  0  0  0  0  0
    3.7320   -4.2500    0.0000 O   0  0  0  0  0  0  0  0  0  0  0  0
    4.5981    0.2500    0.0000 C   0  0  3  0  0  0  0  0  0  0  0  0
    3.7320   -0.2500    0.0000 C   0  0  3  0  0  0  0  0  0  0  0  0
    5.4641   -0.2500    0.0000 C   0  0  0  0  0  0  0  0  0  0  0  0
    2.8660    0.2500    0.0000 C   0  0  0  0  0  0  0  0  0  0  0  0
    3.7320   -1.2500    0.0000 C   0  0  0  0  0  0  0  0  0  0  0  0
    4.5981    1.2500    0.0000 C   0  0  0  0  0  0  0  0  0  0  0  0
    6.3301    0.2500    0.0000 C   0  0  0  0  0  0  0  0  0  0  0  0
    2.0000   -0.2500    0.0000 C   0  0  0  0  0  0  0  0  0  0  0  0
    5.4641    1.7500    0.0000 C   0  0  0  0  0  0  0  0  0  0  0  0
    2.8660   -1.7500    0.0000 C   0  0  0  0  0  0  0  0  0  0  0  0
    3.7320    1.7500    0.0000 C   0  0  0  0  0  0  0  0  0  0  0  0
    4.5981   -1.7500    0.0000 C   0  0  0  0  0  0  0  0  0  0  0  0
    5.4641    2.7500    0.0000 C   0  0  0  0  0  0  0  0  0  0  0  0
    2.8660   -2.7500    0.0000 C   0  0  0  0  0  0  0  0  0  0  0  0
    3.7320    2.7500    0.0000 C   0  0  0  0  0  0  0  0  0  0  0  0
    4.5981   -2.7500    0.0000 C   0  0  0  0  0  0  0  0  0  0  0  0
    4.5981    3.2500    0.0000 C   0  0  0  0  0  0  0  0  0  0  0  0
    3.7320   -3.2500    0.0000 C   0  0  0  0  0  0  0  0  0  0  0  0
    4.5981   -0.6000    0.0000 H   0  0  0  0  0  0  0  0  0  0  0  0
    3.7320    0.6000    0.0000 H   0  0  0  0  0  0  0  0  0  0  0  0
    5.0656   -0.7249    0.0000 H   0  0  0  0  0  0  0  0  0  0  0  0
    5.8626   -0.7249    0.0000 H   0  0  0  0  0  0  0  0  0  0  0  0
    3.2646    0.7249    0.0000 H   0  0  0  0  0  0  0  0  0  0  0  0
    2.4675    0.7249    0.0000 H   0  0  0  0  0  0  0  0  0  0  0  0
    1.6900    0.2869    0.0000 H   0  0  0  0  0  0  0  0  0  0  0  0
    1.4631   -0.5600    0.0000 H   0  0  0  0  0  0  0  0  0  0  0  0
    2.3100   -0.7869    0.0000 H   0  0  0  0  0  0  0  0  0  0  0  0
    6.6401   -0.2869    0.0000 H   0  0  0  0  0  0  0  0  0  0  0  0
    6.8671    0.5600    0.0000 H   0  0  0  0  0  0  0  0  0  0  0  0
    6.0201    0.7869    0.0000 H   0  0  0  0  0  0  0  0  0  0  0  0
    6.0010    1.4400    0.0000 H   0  0  0  0  0  0  0  0  0  0  0  0
    2.3291   -1.4400    0.0000 H   0  0  0  0  0  0  0  0  0  0  0  0
    3.1951    1.4400    0.0000 H   0  0  0  0  0  0  0  0  0  0  0  0
    5.1350   -1.4400    0.0000 H   0  0  0  0  0  0  0  0  0  0  0  0
    6.0010    3.0600    0.0000 H   0  0  0  0  0  0  0  0  0  0  0  0
    2.3291   -3.0600    0.0000 H   0  0  0  0  0  0  0  0  0  0  0  0
    3.1951    3.0600    0.0000 H   0  0  0  0  0  0  0  0  0  0  0  0
    5.1350   -3.0600    0.0000 H   0  0  0  0  0  0  0  0  0  0  0  0
    5.1350    4.5600    0.0000 H   0  0  0  0  0  0  0  0  0  0  0  0
    3.1951   -4.5600    0.0000 H   0  0  0  0  0  0  0  0  0  0  0  0
  1 19  1  0  0  0  0 
  1 41  1  0  0  0  0 
  2 20  1  0  0  0  0 
  2 42  1  0  0  0  0 
  3  4  1  0  0  0  0 
  3  5  1  0  0  0  0 
  3  8  1  0  0  0  0 
  3 21  1  0  0  0  0 
  4  6  1  0  0  0  0 
  4  7  1  0  0  0  0 
  4 22  1  0  0  0  0 
  5  9  1  0  0  0  0 
  5 23  1  0  0  0  0 
  5 24  1  0  0  0  0 
  6 10  1  0  0  0  0 
  6 25  1  0  0  0  0 
  6 26  1  0  0  0  0 
  7 12  2  0  0  0  0 
  7 14  1  0  0  0  0 
  8 11  2  0  0  0  0 
  8 13  1  0  0  0  0 
  9 30  1  0  0  0  0 
  9 31  1  0  0  0  0 
  9 32  1  0  0  0  0 
 10 27  1  0  0  0  0 
 10 28  1  0  0  0  0 
 10 29  1  0  0  0  0 
 11 15  1  0  0  0  0 
 11 33  1  0  0  0  0 
 12 16  1  0  0  0  0 
 12 34  1  0  0  0  0 
 13 17  2  0  0  0  0 
 13 35  1  0  0  0  0 
 14 18  2  0  0  0  0 
 14 36  1  0  0  0  0 
 15 19  2  0  0  0  0 
 15 37  1  0  0  0  0 
 16 20  2  0  0  0  0 
 16 38  1  0  0  0  0 
 17 19  1  0  0  0  0 
 17 39  1  0  0  0  0 
 18 20  1  0  0  0  0 
 18 40  1  0  0  0  0 
M  END
> <cdk:Title>
3606

> <cdk:Remark>
null

> <PUBCHEM_COMPOUND_CID>
3606

> <PUBCHEM_COMPOUND_CANONICALIZED>
1

> <PUBCHEM_CACTVS_COMPLEXITY>
235

> <PUBCHEM_CACTVS_HBOND_ACCEPTOR>
2

> <PUBCHEM_CACTVS_HBOND_DONOR>
2

> <PUBCHEM_CACTVS_ROTATABLE_BOND>
5

> <PUBCHEM_CACTVS_SUBSKEYS>
AAADceB4MAAAAAAAAAAAAAAAAAAAAAAAAAAwYAAAAAAAAAABQAAAGgAACAAADQSAmAAyBoAAAgCAAiBCAAACAAAgIAAIiAAGCIgIJiKCERKAcAAkwBEImAeAwPAOoAAAAAAAAABAAAAAAAAAAAAAAAAAAA==

> <PUBCHEM_IUPAC_OPENEYE_NAME>
4-[1-ethyl-2-(4-hydroxyphenyl)butyl]phenol

> <PUBCHEM_IUPAC_CAS_NAME>
4-[4-(4-hydroxyphenyl)hexan-3-yl]phenol

> <PUBCHEM_IUPAC_NAME>
4-[4-(4-hydroxyphenyl)hexan-3-yl]phenol

> <PUBCHEM_IUPAC_SYSTEMATIC_NAME>
4-[4-(4-hydroxyphenyl)hexan-3-yl]phenol

> <PUBCHEM_IUPAC_TRADITIONAL_NAME>
4-[1-ethyl-2-(4-hydroxyphenyl)butyl]phenol

> <PUBCHEM_IUPAC_INCHI>
InChI=1S/C18H22O2/c1-3-17(13-5-9-15(19)10-6-13)18(4-2)14-7-11-16(20)12-8-14/h5-12,17-20H,3-4H2,1-2H3

> <PUBCHEM_IUPAC_INCHIKEY>
PBBGSZCBWVPOOL-UHFFFAOYSA-N

> <PUBCHEM_XLOGP3_AA>
5.2

> <PUBCHEM_EXACT_MASS>
270.16198

> <PUBCHEM_MOLECULAR_FORMULA>
C18H22O2

> <PUBCHEM_MOLECULAR_WEIGHT>
270.36608

> <PUBCHEM_OPENEYE_CAN_SMILES>
CCC(C1=CC=C(C=C1)O)C(CC)C2=CC=C(C=C2)O

> <PUBCHEM_OPENEYE_ISO_SMILES>
CCC(C1=CC=C(C=C1)O)C(CC)C2=CC=C(C=C2)O

> <PUBCHEM_CACTVS_TPSA>
40.5

> <PUBCHEM_MONOISOTOPIC_WEIGHT>
270.16198

> <PUBCHEM_TOTAL_CHARGE>
0

> <PUBCHEM_HEAVY_ATOM_COUNT>
20

> <PUBCHEM_ATOM_DEF_STEREO_COUNT>
0

> <PUBCHEM_ATOM_UDEF_STEREO_COUNT>
2

> <PUBCHEM_BOND_DEF_STEREO_COUNT>
0

> <PUBCHEM_BOND_UDEF_STEREO_COUNT>
0

> <PUBCHEM_ISOTOPIC_ATOM_COUNT>
0

> <PUBCHEM_COMPONENT_COUNT>
1

> <PUBCHEM_CACTVS_TAUTO_COUNT>
3

> <PUBCHEM_COORDINATE_TYPE>
1
5
255

> <PUBCHEM_BONDANNOTATIONS>
11  15  8
12  16  8
13  17  8
14  18  8
15  19  8
16  20  8
17  19  8
18  20  8
3  21  3
4  22  3
7  12  8
7  14  8
8  11  8
8  13  8

> <DRUG_ID>
w280

> <DRUG_NAME>
Hexestrol

$$$$
3407
  CDK     0927151942
null
 52 54  0  0  0  0  0  0  0  0999 V2000
    7.1962   -3.2500    0.0000 Cl  0  0  0  0  0  0  0  0  0  0  0  0
    2.0000   -0.2500    0.0000 O   0  0  0  0  0  0  0  0  0  0  0  0
    4.5981   -2.7500    0.0000 O   0  0  0  0  0  0  0  0  0  0  0  0
   10.6603   -0.2500    0.0000 O   0  0  0  0  0  0  0  0  0  0  0  0
    3.7320   -1.2500    0.0000 N   0  0  0  0  0  0  0  0  0  0  0  0
    6.3301   -1.7500    0.0000 N   0  0  3  0  0  0  0  0  0  0  0  0
    8.9282   -0.2500    0.0000 N   0  0  0  0  0  0  0  0  0  0  0  0
    2.8660   -1.7500    0.0000 C   0  0  0  0  0  0  0  0  0  0  0  0
    3.7320   -0.2500    0.0000 C   0  0  0  0  0  0  0  0  0  0  0  0
    5.4641   -1.2500    0.0000 C   0  0  0  0  0  0  0  0  0  0  0  0
    2.0000   -1.2500    0.0000 C   0  0  0  0  0  0  0  0  0  0  0  0
    2.8660    0.2500    0.0000 C   0  0  0  0  0  0  0  0  0  0  0  0
    4.5981   -1.7500    0.0000 C   0  0  0  0  0  0  0  0  0  0  0  0
    7.1962   -1.2500    0.0000 C   0  0  0  0  0  0  0  0  0  0  0  0
    8.0622   -1.7500    0.0000 C   0  0  0  0  0  0  0  0  0  0  0  0
    6.3301   -2.7500    0.0000 C   0  0  0  0  0  0  0  0  0  0  0  0
    8.9282   -1.2500    0.0000 C   0  0  0  0  0  0  0  0  0  0  0  0
    8.0622   -2.7500    0.0000 C   0  0  0  0  0  0  0  0  0  0  0  0
    9.7942   -1.7500    0.0000 C   0  0  0  0  0  0  0  0  0  0  0  0
    8.9282   -3.2500    0.0000 C   0  0  0  0  0  0  0  0  0  0  0  0
    9.7942   -2.7500    0.0000 C   0  0  0  0  0  0  0  0  0  0  0  0
    9.7942    0.2500    0.0000 C   0  0  0  0  0  0  0  0  0  0  0  0
    9.7942    1.2500    0.0000 C   0  0  0  0  0  0  0  0  0  0  0  0
   10.6603    1.7500    0.0000 C   0  0  0  0  0  0  0  0  0  0  0  0
    8.9282    1.7500    0.0000 C   0  0  0  0  0  0  0  0  0  0  0  0
   10.6603    2.7500    0.0000 C   0  0  0  0  0  0  0  0  0  0  0  0
    8.9282    2.7500    0.0000 C   0  0  0  0  0  0  0  0  0  0  0  0
    9.7942    3.2500    0.0000 C   0  0  0  0  0  0  0  0  0  0  0  0
    4.3426   -0.3577    0.0000 H   0  0  0  0  0  0  0  0  0  0  0  0
    3.9441    0.3326    0.0000 H   0  0  0  0  0  0  0  0  0  0  0  0
    2.4675   -2.2250    0.0000 H   0  0  0  0  0  0  0  0  0  0  0  0
    3.2646   -2.2250    0.0000 H   0  0  0  0  0  0  0  0  0  0  0  0
    5.8626   -0.7751    0.0000 H   0  0  0  0  0  0  0  0  0  0  0  0
    5.0656   -0.7751    0.0000 H   0  0  0  0  0  0  0  0  0  0  0  0
    1.3894   -1.1423    0.0000 H   0  0  0  0  0  0  0  0  0  0  0  0
    1.7880   -1.8326    0.0000 H   0  0  0  0  0  0  0  0  0  0  0  0
    3.2646    0.7249    0.0000 H   0  0  0  0  0  0  0  0  0  0  0  0
    2.4675    0.7249    0.0000 H   0  0  0  0  0  0  0  0  0  0  0  0
    7.5947   -0.7751    0.0000 H   0  0  0  0  0  0  0  0  0  0  0  0
    6.7976   -0.7751    0.0000 H   0  0  0  0  0  0  0  0  0  0  0  0
    5.7101   -2.7500    0.0000 H   0  0  0  0  0  0  0  0  0  0  0  0
    6.3301   -3.3700    0.0000 H   0  0  0  0  0  0  0  0  0  0  0  0
    6.9501   -2.7500    0.0000 H   0  0  0  0  0  0  0  0  0  0  0  0
   10.3312   -1.4400    0.0000 H   0  0  0  0  0  0  0  0  0  0  0  0
    8.3913    0.0600    0.0000 H   0  0  0  0  0  0  0  0  0  0  0  0
    8.9282   -3.8700    0.0000 H   0  0  0  0  0  0  0  0  0  0  0  0
   10.3312   -3.0600    0.0000 H   0  0  0  0  0  0  0  0  0  0  0  0
   11.1972    1.4400    0.0000 H   0  0  0  0  0  0  0  0  0  0  0  0
    8.3913    1.4400    0.0000 H   0  0  0  0  0  0  0  0  0  0  0  0
   11.1972    3.0600    0.0000 H   0  0  0  0  0  0  0  0  0  0  0  0
    8.3913    3.0600    0.0000 H   0  0  0  0  0  0  0  0  0  0  0  0
    9.7942    3.8700    0.0000 H   0  0  0  0  0  0  0  0  0  0  0  0
  1 18  1  0  0  0  0 
  2 11  1  0  0  0  0 
  2 12  1  0  0  0  0 
  3 13  2  0  0  0  0 
  4 22  2  0  0  0  0 
  5  8  1  0  0  0  0 
  5  9  1  0  0  0  0 
  5 13  1  0  0  0  0 
  6 10  1  0  0  0  0 
  6 14  1  0  0  0  0 
  6 16  1  0  0  0  0 
  7 17  1  0  0  0  0 
  7 22  1  0  0  0  0 
  7 45  1  0  0  0  0 
  8 11  1  0  0  0  0 
  8 31  1  0  0  0  0 
  8 32  1  0  0  0  0 
  9 12  1  0  0  0  0 
  9 29  1  0  0  0  0 
  9 30  1  0  0  0  0 
 10 13  1  0  0  0  0 
 10 33  1  0  0  0  0 
 10 34  1  0  0  0  0 
 11 35  1  0  0  0  0 
 11 36  1  0  0  0  0 
 12 37  1  0  0  0  0 
 12 38  1  0  0  0  0 
 14 15  1  0  0  0  0 
 14 39  1  0  0  0  0 
 14 40  1  0  0  0  0 
 15 17  2  0  0  0  0 
 15 18  1  0  0  0  0 
 16 41  1  0  0  0  0 
 16 42  1  0  0  0  0 
 16 43  1  0  0  0  0 
 17 19  1  0  0  0  0 
 18 20  2  0  0  0  0 
 19 21  2  0  0  0  0 
 19 44  1  0  0  0  0 
 20 21  1  0  0  0  0 
 20 46  1  0  0  0  0 
 21 47  1  0  0  0  0 
 22 23  1  0  0  0  0 
 23 24  2  0  0  0  0 
 23 25  1  0  0  0  0 
 24 26  1  0  0  0  0 
 24 48  1  0  0  0  0 
 25 27  2  0  0  0  0 
 25 49  1  0  0  0  0 
 26 28  2  0  0  0  0 
 26 50  1  0  0  0  0 
 27 28  1  0  0  0  0 
 27 51  1  0  0  0  0 
 28 52  1  0  0  0  0 
M  END
> <cdk:Title>
3407

> <cdk:Remark>
null

> <PUBCHEM_COMPOUND_CID>
3407

> <PUBCHEM_COMPOUND_CANONICALIZED>
1

> <PUBCHEM_CACTVS_COMPLEXITY>
521

> <PUBCHEM_CACTVS_HBOND_ACCEPTOR>
4

> <PUBCHEM_CACTVS_HBOND_DONOR>
1

> <PUBCHEM_CACTVS_ROTATABLE_BOND>
6

> <PUBCHEM_CACTVS_SUBSKEYS>
AAADceB7MAAEAAAAAAAAAAAAAAAAAAAAAAA8YIAAAAAAAAABQAAAHgIQAAAADArhmCYywIPABACIAiVSUACCAAAlBwAIiAGIZsgKYDLB17GXIQhglgDYyYcYiACOAAAAAAIDAAAAAAAABAYAAAAAAAAAAA==

> <PUBCHEM_IUPAC_OPENEYE_NAME>
N-[3-chloro-2-[[methyl-(2-morpholino-2-oxo-ethyl)amino]methyl]phenyl]benzamide

> <PUBCHEM_IUPAC_CAS_NAME>
N-[3-chloro-2-[[methyl-[2-(4-morpholinyl)-2-oxoethyl]amino]methyl]phenyl]benzamide

> <PUBCHEM_IUPAC_NAME>
N-[3-chloro-2-[[methyl-(2-morpholin-4-yl-2-oxoethyl)amino]methyl]phenyl]benzamide

> <PUBCHEM_IUPAC_SYSTEMATIC_NAME>
N-[3-chloranyl-2-[[methyl-(2-morpholin-4-yl-2-oxidanylidene-ethyl)amino]methyl]phenyl]benzamide

> <PUBCHEM_IUPAC_TRADITIONAL_NAME>
N-[3-chloro-2-[[(2-keto-2-morpholino-ethyl)-methyl-amino]methyl]phenyl]benzamide

> <PUBCHEM_IUPAC_INCHI>
InChI=1S/C21H24ClN3O3/c1-24(15-20(26)25-10-12-28-13-11-25)14-17-18(22)8-5-9-19(17)23-21(27)16-6-3-2-4-7-16/h2-9H,10-15H2,1H3,(H,23,27)

> <PUBCHEM_IUPAC_INCHIKEY>
KSNNEUZOAFRTDS-UHFFFAOYSA-N

> <PUBCHEM_XLOGP3_AA>
2.4

> <PUBCHEM_EXACT_MASS>
401.150619

> <PUBCHEM_MOLECULAR_FORMULA>
C21H24ClN3O3

> <PUBCHEM_MOLECULAR_WEIGHT>
401.88656

> <PUBCHEM_OPENEYE_CAN_SMILES>
CN(CC1=C(C=CC=C1Cl)NC(=O)C2=CC=CC=C2)CC(=O)N3CCOCC3

> <PUBCHEM_OPENEYE_ISO_SMILES>
CN(CC1=C(C=CC=C1Cl)NC(=O)C2=CC=CC=C2)CC(=O)N3CCOCC3

> <PUBCHEM_CACTVS_TPSA>
61.9

> <PUBCHEM_MONOISOTOPIC_WEIGHT>
401.150619

> <PUBCHEM_TOTAL_CHARGE>
0

> <PUBCHEM_HEAVY_ATOM_COUNT>
28

> <PUBCHEM_ATOM_DEF_STEREO_COUNT>
0

> <PUBCHEM_ATOM_UDEF_STEREO_COUNT>
0

> <PUBCHEM_BOND_DEF_STEREO_COUNT>
0

> <PUBCHEM_BOND_UDEF_STEREO_COUNT>
0

> <PUBCHEM_ISOTOPIC_ATOM_COUNT>
0

> <PUBCHEM_COMPONENT_COUNT>
1

> <PUBCHEM_CACTVS_TAUTO_COUNT>
5

> <PUBCHEM_COORDINATE_TYPE>
1
5
255

> <PUBCHEM_BONDANNOTATIONS>
15  17  8
15  18  8
17  19  8
18  20  8
19  21  8
20  21  8
23  24  8
23  25  8
24  26  8
25  27  8
26  28  8
27  28  8

> <DRUG_ID>
w283

> <DRUG_NAME>
Fominoben

$$$$
9528
  CDK     0927151942
null
 15 14  0  0  0  0  0  0  0  0999 V2000
    2.0000   -0.5000    0.0000 F   0  0  0  0  0  0  0  0  0  0  0  0
    2.3660    0.8660    0.0000 F   0  0  0  0  0  0  0  0  0  0  0  0
    3.3660   -0.8660    0.0000 F   0  0  0  0  0  0  0  0  0  0  0  0
    7.1962   -0.5000    0.0000 F   0  0  0  0  0  0  0  0  0  0  0  0
    6.8301    0.8660    0.0000 F   0  0  0  0  0  0  0  0  0  0  0  0
    5.8301   -0.8660    0.0000 F   0  0  0  0  0  0  0  0  0  0  0  0
    4.5981    0.0000    0.0000 O   0  0  0  0  0  0  0  0  0  0  0  0
    3.7320    0.5000    0.0000 C   0  0  0  0  0  0  0  0  0  0  0  0
    5.4641    0.5000    0.0000 C   0  0  0  0  0  0  0  0  0  0  0  0
    2.8660    0.0000    0.0000 C   0  0  0  0  0  0  0  0  0  0  0  0
    6.3301    0.0000    0.0000 C   0  0  0  0  0  0  0  0  0  0  0  0
    4.1306    0.9749    0.0000 H   0  0  0  0  0  0  0  0  0  0  0  0
    3.3335    0.9749    0.0000 H   0  0  0  0  0  0  0  0  0  0  0  0
    5.8626    0.9749    0.0000 H   0  0  0  0  0  0  0  0  0  0  0  0
    5.0656    0.9749    0.0000 H   0  0  0  0  0  0  0  0  0  0  0  0
  1 10  1  0  0  0  0 
  2 10  1  0  0  0  0 
  3 10  1  0  0  0  0 
  4 11  1  0  0  0  0 
  5 11  1  0  0  0  0 
  6 11  1  0  0  0  0 
  7  8  1  0  0  0  0 
  7  9  1  0  0  0  0 
  8 10  1  0  0  0  0 
  8 12  1  0  0  0  0 
  8 13  1  0  0  0  0 
  9 11  1  0  0  0  0 
  9 14  1  0  0  0  0 
  9 15  1  0  0  0  0 
M  END
> <cdk:Title>
9528

> <cdk:Remark>
null

> <PUBCHEM_COMPOUND_CID>
9528

> <PUBCHEM_COMPOUND_CANONICALIZED>
1

> <PUBCHEM_CACTVS_COMPLEXITY>
98.7

> <PUBCHEM_CACTVS_HBOND_ACCEPTOR>
7

> <PUBCHEM_CACTVS_HBOND_DONOR>
0

> <PUBCHEM_CACTVS_ROTATABLE_BOND>
2

> <PUBCHEM_CACTVS_SUBSKEYS>
AAADcYBgIcAAAAAAAAAAAAAAAAAAAAAAAAAAAAAAAAAAAAAAAAAAGwAAAAAAAACggBIAAAAABAAAAAAAAAAAAAAAAAAAAAAAAAAAAAAAAAACAAAAAAAAAAAAAAAAAAAAAAAAAAAAAAAAAAAAAAAAAAAAAA==

> <PUBCHEM_IUPAC_OPENEYE_NAME>
1,1,1-trifluoro-2-(2,2,2-trifluoroethoxy)ethane

> <PUBCHEM_IUPAC_CAS_NAME>
1,1,1-trifluoro-2-(2,2,2-trifluoroethoxy)ethane

> <PUBCHEM_IUPAC_NAME>
1,1,1-trifluoro-2-(2,2,2-trifluoroethoxy)ethane

> <PUBCHEM_IUPAC_SYSTEMATIC_NAME>
1,1,1-tris(fluoranyl)-2-[2,2,2-tris(fluoranyl)ethoxy]ethane

> <PUBCHEM_IUPAC_TRADITIONAL_NAME>
1,1,1-trifluoro-2-(2,2,2-trifluoroethoxy)ethane

> <PUBCHEM_IUPAC_INCHI>
InChI=1S/C4H4F6O/c5-3(6,7)1-11-2-4(8,9)10/h1-2H2

> <PUBCHEM_IUPAC_INCHIKEY>
KGPPDNUWZNWPSI-UHFFFAOYSA-N

> <PUBCHEM_XLOGP3_AA>
2.3

> <PUBCHEM_EXACT_MASS>
182.016634

> <PUBCHEM_MOLECULAR_FORMULA>
C4H4F6O

> <PUBCHEM_MOLECULAR_WEIGHT>
182.064379

> <PUBCHEM_OPENEYE_CAN_SMILES>
C(C(F)(F)F)OCC(F)(F)F

> <PUBCHEM_OPENEYE_ISO_SMILES>
C(C(F)(F)F)OCC(F)(F)F

> <PUBCHEM_CACTVS_TPSA>
9.2

> <PUBCHEM_MONOISOTOPIC_WEIGHT>
182.016634

> <PUBCHEM_TOTAL_CHARGE>
0

> <PUBCHEM_HEAVY_ATOM_COUNT>
11

> <PUBCHEM_ATOM_DEF_STEREO_COUNT>
0

> <PUBCHEM_ATOM_UDEF_STEREO_COUNT>
0

> <PUBCHEM_BOND_DEF_STEREO_COUNT>
0

> <PUBCHEM_BOND_UDEF_STEREO_COUNT>
0

> <PUBCHEM_ISOTOPIC_ATOM_COUNT>
0

> <PUBCHEM_COMPONENT_COUNT>
1

> <PUBCHEM_CACTVS_TAUTO_COUNT>
1

> <PUBCHEM_COORDINATE_TYPE>
1
5
255

> <DRUG_ID>
w281

> <DRUG_NAME>
Flurothyl

$$$$
3374
  CDK     0927151942
null
 31 33  0  0  0  0  0  0  0  0999 V2000
    2.0000   -2.8205    0.0000 F   0  0  0  0  0  0  0  0  0  0  0  0
    2.9200    0.7246    0.0000 O   0  0  0  0  0  0  0  0  0  0  0  0
    5.5180    2.2246    0.0000 O   0  0  0  0  0  0  0  0  0  0  0  0
    3.7860    2.2246    0.0000 O   0  0  0  0  0  0  0  0  0  0  0  0
    5.5180   -0.7754    0.0000 N   0  0  0  0  0  0  0  0  0  0  0  0
    6.3775   -1.2701    0.0000 C   0  0  3  0  0  0  0  0  0  0  0  0
    6.3909   -2.2618    0.0000 C   0  0  0  0  0  0  0  0  0  0  0  0
    5.5452   -2.7796    0.0000 C   0  0  0  0  0  0  0  0  0  0  0  0
    4.6520   -1.2754    0.0000 C   0  0  0  0  0  0  0  0  0  0  0  0
    4.6681   -2.3169    0.0000 C   0  0  0  0  0  0  0  0  0  0  0  0
    3.7860   -0.7754    0.0000 C   0  0  0  0  0  0  0  0  0  0  0  0
    7.2398   -0.7637    0.0000 C   0  0  0  0  0  0  0  0  0  0  0  0
    5.5180    0.2246    0.0000 C   0  0  0  0  0  0  0  0  0  0  0  0
    3.7700   -2.8446    0.0000 C   0  0  0  0  0  0  0  0  0  0  0  0
    4.6520    0.7246    0.0000 C   0  0  0  0  0  0  0  0  0  0  0  0
    3.7860    0.2246    0.0000 C   0  0  0  0  0  0  0  0  0  0  0  0
    2.8760   -1.2822    0.0000 C   0  0  0  0  0  0  0  0  0  0  0  0
    2.8680   -2.3238    0.0000 C   0  0  0  0  0  0  0  0  0  0  0  0
    4.6520    1.7246    0.0000 C   0  0  0  0  0  0  0  0  0  0  0  0
    6.3748   -0.6501    0.0000 H   0  0  0  0  0  0  0  0  0  0  0  0
    6.6156   -2.8396    0.0000 H   0  0  0  0  0  0  0  0  0  0  0  0
    6.9995   -2.1433    0.0000 H   0  0  0  0  0  0  0  0  0  0  0  0
    5.1630   -3.2679    0.0000 H   0  0  0  0  0  0  0  0  0  0  0  0
    5.9577   -3.2424    0.0000 H   0  0  0  0  0  0  0  0  0  0  0  0
    7.5538   -1.2984    0.0000 H   0  0  0  0  0  0  0  0  0  0  0  0
    7.7744   -0.4498    0.0000 H   0  0  0  0  0  0  0  0  0  0  0  0
    6.9258   -0.2291    0.0000 H   0  0  0  0  0  0  0  0  0  0  0  0
    6.0550    0.5346    0.0000 H   0  0  0  0  0  0  0  0  0  0  0  0
    3.7724   -3.4646    0.0000 H   0  0  0  0  0  0  0  0  0  0  0  0
    2.3427   -0.9660    0.0000 H   0  0  0  0  0  0  0  0  0  0  0  0
    5.5180    2.8446    0.0000 H   0  0  0  0  0  0  0  0  0  0  0  0
  1 18  1  0  0  0  0 
  2 16  2  0  0  0  0 
  3 19  1  0  0  0  0 
  3 31  1  0  0  0  0 
  4 19  2  0  0  0  0 
  5  6  1  0  0  0  0 
  5  9  1  0  0  0  0 
  5 13  1  0  0  0  0 
  6  7  1  0  0  0  0 
  6 12  1  0  0  0  0 
  6 20  1  0  0  0  0 
  7  8  1  0  0  0  0 
  7 21  1  0  0  0  0 
  7 22  1  0  0  0  0 
  8 10  1  0  0  0  0 
  8 23  1  0  0  0  0 
  8 24  1  0  0  0  0 
  9 10  2  0  0  0  0 
  9 11  1  0  0  0  0 
 10 14  1  0  0  0  0 
 11 16  1  0  0  0  0 
 11 17  2  0  0  0  0 
 12 25  1  0  0  0  0 
 12 26  1  0  0  0  0 
 12 27  1  0  0  0  0 
 13 15  2  0  0  0  0 
 13 28  1  0  0  0  0 
 14 18  2  0  0  0  0 
 14 29  1  0  0  0  0 
 15 16  1  0  0  0  0 
 15 19  1  0  0  0  0 
 17 18  1  0  0  0  0 
 17 30  1  0  0  0  0 
M  END
> <cdk:Title>
3374

> <cdk:Remark>
null

> <PUBCHEM_COMPOUND_CID>
3374

> <PUBCHEM_COMPOUND_CANONICALIZED>
1

> <PUBCHEM_CACTVS_COMPLEXITY>
462

> <PUBCHEM_CACTVS_HBOND_ACCEPTOR>
5

> <PUBCHEM_CACTVS_HBOND_DONOR>
1

> <PUBCHEM_CACTVS_ROTATABLE_BOND>
1

> <PUBCHEM_CACTVS_SUBSKEYS>
AAADccByMQAAAAAAAAAAAAAAAAAAAAAAAAA8QIAAAAAAAACxAAAAHwAACAAADCzBmAwyyIMAAgCIAqTWSACCAAAlAAAAiAEIRMgIJD7IlZGEYYhkoADI2ceY2eOeAAACAAACAAAAAAQAAAQAAAAAAAAAAA==

> <PUBCHEM_IUPAC_INCHI>
InChI=1S/C14H12FNO3/c1-7-2-3-8-4-9(15)5-10-12(8)16(7)6-11(13(10)17)14(18)19/h4-7H,2-3H2,1H3,(H,18,19)

> <PUBCHEM_IUPAC_INCHIKEY>
DPSPPJIUMHPXMA-UHFFFAOYSA-N

> <PUBCHEM_XLOGP3_AA>
2.9

> <PUBCHEM_EXACT_MASS>
261.080121

> <PUBCHEM_MOLECULAR_FORMULA>
C14H12FNO3

> <PUBCHEM_MOLECULAR_WEIGHT>
261.248383

> <PUBCHEM_OPENEYE_CAN_SMILES>
CC1CCC2=C3N1C=C(C(=O)C3=CC(=C2)F)C(=O)O

> <PUBCHEM_OPENEYE_ISO_SMILES>
CC1CCC2=C3N1C=C(C(=O)C3=CC(=C2)F)C(=O)O

> <PUBCHEM_CACTVS_TPSA>
57.6

> <PUBCHEM_MONOISOTOPIC_WEIGHT>
261.080121

> <PUBCHEM_TOTAL_CHARGE>
0

> <PUBCHEM_HEAVY_ATOM_COUNT>
19

> <PUBCHEM_ATOM_DEF_STEREO_COUNT>
0

> <PUBCHEM_ATOM_UDEF_STEREO_COUNT>
1

> <PUBCHEM_BOND_DEF_STEREO_COUNT>
0

> <PUBCHEM_BOND_UDEF_STEREO_COUNT>
0

> <PUBCHEM_ISOTOPIC_ATOM_COUNT>
0

> <PUBCHEM_COMPONENT_COUNT>
1

> <PUBCHEM_CACTVS_TAUTO_COUNT>
1

> <PUBCHEM_COORDINATE_TYPE>
1
5
255

> <PUBCHEM_BONDANNOTATIONS>
10  14  8
11  16  8
11  17  8
13  15  8
14  18  8
15  16  8
17  18  8
5  13  8
5  9  8
6  12  3
9  10  8
9  11  8

> <DRUG_ID>
w279

> <DRUG_NAME>
Flumequine

$$$$
35802
  CDK     0927151942
null
 35 37  0  0  0  0  0  0  0  0999 V2000
    2.0000   -1.1340    0.0000 F   0  0  0  0  0  0  0  0  0  0  0  0
    5.4641    1.8660    0.0000 O   0  0  0  0  0  0  0  0  0  0  0  0
   12.0920   -1.0000    0.0000 O   0  0  0  0  0  0  0  0  0  0  0  0
   10.5920   -1.8660    0.0000 O   0  0  0  0  0  0  0  0  0  0  0  0
    9.0084    0.6708    0.0000 N   0  0  0  0  0  0  0  0  0  0  0  0
    9.0084   -0.9387    0.0000 N   0  0  0  0  0  0  0  0  0  0  0  0
   10.5920   -0.1340    0.0000 N   0  0  0  0  0  0  0  0  0  0  0  0
    8.0622    0.3660    0.0000 C   0  0  0  0  0  0  0  0  0  0  0  0
    8.0622   -0.6340    0.0000 C   0  0  0  0  0  0  0  0  0  0  0  0
    6.3301    0.3660    0.0000 C   0  0  0  0  0  0  0  0  0  0  0  0
    7.1962    0.8660    0.0000 C   0  0  0  0  0  0  0  0  0  0  0  0
    7.1962   -1.1340    0.0000 C   0  0  0  0  0  0  0  0  0  0  0  0
    6.3301   -0.6340    0.0000 C   0  0  0  0  0  0  0  0  0  0  0  0
    9.5920   -0.1340    0.0000 C   0  0  0  0  0  0  0  0  0  0  0  0
    5.4641    0.8660    0.0000 C   0  0  0  0  0  0  0  0  0  0  0  0
    4.5981    0.3660    0.0000 C   0  0  0  0  0  0  0  0  0  0  0  0
    3.7320    0.8660    0.0000 C   0  0  0  0  0  0  0  0  0  0  0  0
    4.5981   -0.6340    0.0000 C   0  0  0  0  0  0  0  0  0  0  0  0
    2.8660    0.3660    0.0000 C   0  0  0  0  0  0  0  0  0  0  0  0
    3.7320   -1.1340    0.0000 C   0  0  0  0  0  0  0  0  0  0  0  0
    2.8660   -0.6340    0.0000 C   0  0  0  0  0  0  0  0  0  0  0  0
   11.0920   -1.0000    0.0000 C   0  0  0  0  0  0  0  0  0  0  0  0
   12.5920   -1.8660    0.0000 C   0  0  0  0  0  0  0  0  0  0  0  0
    7.1962    1.4860    0.0000 H   0  0  0  0  0  0  0  0  0  0  0  0
    9.2010    1.2601    0.0000 H   0  0  0  0  0  0  0  0  0  0  0  0
    7.1962   -1.7540    0.0000 H   0  0  0  0  0  0  0  0  0  0  0  0
    5.7932   -0.9440    0.0000 H   0  0  0  0  0  0  0  0  0  0  0  0
   10.9020    0.4030    0.0000 H   0  0  0  0  0  0  0  0  0  0  0  0
    3.7320    1.4860    0.0000 H   0  0  0  0  0  0  0  0  0  0  0  0
    5.1350   -0.9440    0.0000 H   0  0  0  0  0  0  0  0  0  0  0  0
    2.3291    0.6760    0.0000 H   0  0  0  0  0  0  0  0  0  0  0  0
    3.7320   -1.7540    0.0000 H   0  0  0  0  0  0  0  0  0  0  0  0
   12.0551   -2.1760    0.0000 H   0  0  0  0  0  0  0  0  0  0  0  0
   12.9020   -2.4030    0.0000 H   0  0  0  0  0  0  0  0  0  0  0  0
   13.1289   -1.5560    0.0000 H   0  0  0  0  0  0  0  0  0  0  0  0
  1 21  1  0  0  0  0 
  2 15  2  0  0  0  0 
  3 22  1  0  0  0  0 
  3 23  1  0  0  0  0 
  4 22  2  0  0  0  0 
  5  8  1  0  0  0  0 
  5 14  1  0  0  0  0 
  5 25  1  0  0  0  0 
  6  9  1  0  0  0  0 
  6 14  2  0  0  0  0 
  7 14  1  0  0  0  0 
  7 22  1  0  0  0  0 
  7 28  1  0  0  0  0 
  8  9  2  0  0  0  0 
  8 11  1  0  0  0  0 
  9 12  1  0  0  0  0 
 10 11  2  0  0  0  0 
 10 13  1  0  0  0  0 
 10 15  1  0  0  0  0 
 11 24  1  0  0  0  0 
 12 13  2  0  0  0  0 
 12 26  1  0  0  0  0 
 13 27  1  0  0  0  0 
 15 16  1  0  0  0  0 
 16 17  2  0  0  0  0 
 16 18  1  0  0  0  0 
 17 19  1  0  0  0  0 
 17 29  1  0  0  0  0 
 18 20  2  0  0  0  0 
 18 30  1  0  0  0  0 
 19 21  2  0  0  0  0 
 19 31  1  0  0  0  0 
 20 21  1  0  0  0  0 
 20 32  1  0  0  0  0 
 23 33  1  0  0  0  0 
 23 34  1  0  0  0  0 
 23 35  1  0  0  0  0 
M  END
> <cdk:Title>
35802

> <cdk:Remark>
null

> <PUBCHEM_COMPOUND_CID>
35802

> <PUBCHEM_COMPOUND_CANONICALIZED>
1

> <PUBCHEM_CACTVS_COMPLEXITY>
454

> <PUBCHEM_CACTVS_HBOND_ACCEPTOR>
5

> <PUBCHEM_CACTVS_HBOND_DONOR>
2

> <PUBCHEM_CACTVS_ROTATABLE_BOND>
4

> <PUBCHEM_CACTVS_SUBSKEYS>
AAADccB7MQAAAAAAAAAAAAAAAAAAAWAAAAAwYAAAAAAAAFgB9AAAHwAQAAAADAyBngoz2LbJlACoA6RyfACCgC2lEqAJmSEwdNmIaLLAnZGUIQhokQJIyaccicCeCAAAQAAAACAQAACAAAAAQAAAAAAAAA==

> <PUBCHEM_IUPAC_OPENEYE_NAME>
methyl N-[6-(4-fluorobenzoyl)-1H-benzimidazol-2-yl]carbamate

> <PUBCHEM_IUPAC_CAS_NAME>
N-[6-[(4-fluorophenyl)-oxomethyl]-1H-benzimidazol-2-yl]carbamic acid methyl ester

> <PUBCHEM_IUPAC_NAME>
methyl N-[6-(4-fluorobenzoyl)-1H-benzimidazol-2-yl]carbamate

> <PUBCHEM_IUPAC_SYSTEMATIC_NAME>
methyl N-[6-(4-fluorophenyl)carbonyl-1H-benzimidazol-2-yl]carbamate

> <PUBCHEM_IUPAC_TRADITIONAL_NAME>
N-[6-(4-fluorobenzoyl)-1H-benzimidazol-2-yl]carbamic acid methyl ester

> <PUBCHEM_IUPAC_INCHI>
InChI=1S/C16H12FN3O3/c1-23-16(22)20-15-18-12-7-4-10(8-13(12)19-15)14(21)9-2-5-11(17)6-3-9/h2-8H,1H3,(H2,18,19,20,22)

> <PUBCHEM_IUPAC_INCHIKEY>
CPEUVMUXAHMANV-UHFFFAOYSA-N

> <PUBCHEM_XLOGP3>
2.9

> <PUBCHEM_EXACT_MASS>
313.086269

> <PUBCHEM_MOLECULAR_FORMULA>
C16H12FN3O3

> <PUBCHEM_MOLECULAR_WEIGHT>
313.283183

> <PUBCHEM_OPENEYE_CAN_SMILES>
COC(=O)NC1=NC2=C(N1)C=C(C=C2)C(=O)C3=CC=C(C=C3)F

> <PUBCHEM_OPENEYE_ISO_SMILES>
COC(=O)NC1=NC2=C(N1)C=C(C=C2)C(=O)C3=CC=C(C=C3)F

> <PUBCHEM_CACTVS_TPSA>
84.1

> <PUBCHEM_MONOISOTOPIC_WEIGHT>
313.086269

> <PUBCHEM_TOTAL_CHARGE>
0

> <PUBCHEM_HEAVY_ATOM_COUNT>
23

> <PUBCHEM_ATOM_DEF_STEREO_COUNT>
0

> <PUBCHEM_ATOM_UDEF_STEREO_COUNT>
0

> <PUBCHEM_BOND_DEF_STEREO_COUNT>
0

> <PUBCHEM_BOND_UDEF_STEREO_COUNT>
0

> <PUBCHEM_ISOTOPIC_ATOM_COUNT>
0

> <PUBCHEM_COMPONENT_COUNT>
1

> <PUBCHEM_CACTVS_TAUTO_COUNT>
15

> <PUBCHEM_COORDINATE_TYPE>
1
5
255

> <PUBCHEM_BONDANNOTATIONS>
10  11  8
10  13  8
12  13  8
16  17  8
16  18  8
17  19  8
18  20  8
19  21  8
20  21  8
5  14  8
5  8  8
6  14  8
6  9  8
8  11  8
8  9  8
9  12  8

> <DRUG_ID>
w282

> <DRUG_NAME>
Flubendazole

$$$$
3723
  CDK     0927151942
null
 32 32  0  0  0  0  0  0  0  0999 V2000
    6.3301    1.0000    0.0000 I   0  0  0  0  0  0  0  0  0  0  0  0
    4.5981   -2.0000    0.0000 I   0  0  0  0  0  0  0  0  0  0  0  0
    2.8660    1.0000    0.0000 I   0  0  0  0  0  0  0  0  0  0  0  0
    2.8660   -2.0000    0.0000 O   0  0  0  0  0  0  0  0  0  0  0  0
    2.0000   -0.5000    0.0000 O   0  0  0  0  0  0  0  0  0  0  0  0
    8.0622   -2.0000    0.0000 O   0  0  0  0  0  0  0  0  0  0  0  0
    6.3301    2.0000    0.0000 O   0  0  0  0  0  0  0  0  0  0  0  0
    6.3301   -2.0000    0.0000 N   0  0  0  0  0  0  0  0  0  0  0  0
    4.5981    2.0000    0.0000 N   0  0  0  0  0  0  0  0  0  0  0  0
    5.4641   -0.5000    0.0000 C   0  0  0  0  0  0  0  0  0  0  0  0
    6.3301   -1.0000    0.0000 C   0  0  0  0  0  0  0  0  0  0  0  0
    5.4641    0.5000    0.0000 C   0  0  0  0  0  0  0  0  0  0  0  0
    4.5981    1.0000    0.0000 C   0  0  0  0  0  0  0  0  0  0  0  0
    4.5981   -1.0000    0.0000 C   0  0  0  0  0  0  0  0  0  0  0  0
    3.7320   -0.5000    0.0000 C   0  0  0  0  0  0  0  0  0  0  0  0
    3.7320    0.5000    0.0000 C   0  0  0  0  0  0  0  0  0  0  0  0
    2.8660   -1.0000    0.0000 C   0  0  0  0  0  0  0  0  0  0  0  0
    7.1962   -2.5000    0.0000 C   0  0  0  0  0  0  0  0  0  0  0  0
    5.4641    2.5000    0.0000 C   0  0  0  0  0  0  0  0  0  0  0  0
    7.1962   -3.5000    0.0000 C   0  0  0  0  0  0  0  0  0  0  0  0
    5.4641    3.5000    0.0000 C   0  0  0  0  0  0  0  0  0  0  0  0
    6.9407   -1.1077    0.0000 H   0  0  0  0  0  0  0  0  0  0  0  0
    6.5422   -0.4174    0.0000 H   0  0  0  0  0  0  0  0  0  0  0  0
    5.7932   -2.3100    0.0000 H   0  0  0  0  0  0  0  0  0  0  0  0
    4.0611    2.3100    0.0000 H   0  0  0  0  0  0  0  0  0  0  0  0
    6.5762   -3.5000    0.0000 H   0  0  0  0  0  0  0  0  0  0  0  0
    7.1962   -4.1200    0.0000 H   0  0  0  0  0  0  0  0  0  0  0  0
    7.8162   -3.5000    0.0000 H   0  0  0  0  0  0  0  0  0  0  0  0
    6.0841    3.5000    0.0000 H   0  0  0  0  0  0  0  0  0  0  0  0
    5.4641    4.1200    0.0000 H   0  0  0  0  0  0  0  0  0  0  0  0
    4.8441    3.5000    0.0000 H   0  0  0  0  0  0  0  0  0  0  0  0
    2.3291   -2.3100    0.0000 H   0  0  0  0  0  0  0  0  0  0  0  0
  1 12  1  0  0  0  0 
  2 14  1  0  0  0  0 
  3 16  1  0  0  0  0 
  4 17  1  0  0  0  0 
  4 32  1  0  0  0  0 
  5 17  2  0  0  0  0 
  6 18  2  0  0  0  0 
  7 19  2  0  0  0  0 
  8 11  1  0  0  0  0 
  8 18  1  0  0  0  0 
  8 24  1  0  0  0  0 
  9 13  1  0  0  0  0 
  9 19  1  0  0  0  0 
  9 25  1  0  0  0  0 
 10 11  1  0  0  0  0 
 10 12  1  0  0  0  0 
 10 14  2  0  0  0  0 
 11 22  1  0  0  0  0 
 11 23  1  0  0  0  0 
 12 13  2  0  0  0  0 
 13 16  1  0  0  0  0 
 14 15  1  0  0  0  0 
 15 16  2  0  0  0  0 
 15 17  1  0  0  0  0 
 18 20  1  0  0  0  0 
 19 21  1  0  0  0  0 
 20 26  1  0  0  0  0 
 20 27  1  0  0  0  0 
 20 28  1  0  0  0  0 
 21 29  1  0  0  0  0 
 21 30  1  0  0  0  0 
 21 31  1  0  0  0  0 
M  END
> <cdk:Title>
3723

> <cdk:Remark>
null

> <PUBCHEM_COMPOUND_CID>
3723

> <PUBCHEM_COMPOUND_CANONICALIZED>
1

> <PUBCHEM_CACTVS_COMPLEXITY>
435

> <PUBCHEM_CACTVS_HBOND_ACCEPTOR>
4

> <PUBCHEM_CACTVS_HBOND_DONOR>
3

> <PUBCHEM_CACTVS_ROTATABLE_BOND>
4

> <PUBCHEM_CACTVS_SUBSKEYS>
AAADccBzOAAAAwAAAAAAAAAAAAAAAAAAAAAwAAAAAAAAAAABAAAAHgAwCAAADAjDmAQCyILAAgCIAgXQWACCAAAlAAAAiIEITMgIJjLAlJGEcQhk1gHI2Qe82WKOAAACQAAAAAAAAASAAAAAAAAAAAAAAA==

> <PUBCHEM_IUPAC_OPENEYE_NAME>
3-acetamido-5-(acetamidomethyl)-2,4,6-triiodo-benzoic acid

> <PUBCHEM_IUPAC_CAS_NAME>
3-acetamido-5-(acetamidomethyl)-2,4,6-triiodobenzoic acid

> <PUBCHEM_IUPAC_NAME>
3-acetamido-5-(acetamidomethyl)-2,4,6-triiodobenzoic acid

> <PUBCHEM_IUPAC_SYSTEMATIC_NAME>
3-acetamido-5-(acetamidomethyl)-2,4,6-tris(iodanyl)benzoic acid

> <PUBCHEM_IUPAC_TRADITIONAL_NAME>
3-acetamido-5-(acetamidomethyl)-2,4,6-triiodo-benzoic acid

> <PUBCHEM_IUPAC_INCHI>
InChI=1S/C12H11I3N2O4/c1-4(18)16-3-6-8(13)7(12(20)21)10(15)11(9(6)14)17-5(2)19/h3H2,1-2H3,(H,16,18)(H,17,19)(H,20,21)

> <PUBCHEM_IUPAC_INCHIKEY>
VVDGWALACJEJKG-UHFFFAOYSA-N

> <PUBCHEM_XLOGP3_AA>
1.7

> <PUBCHEM_EXACT_MASS>
627.785301

> <PUBCHEM_MOLECULAR_FORMULA>
C12H11I3N2O4

> <PUBCHEM_MOLECULAR_WEIGHT>
627.94015

> <PUBCHEM_OPENEYE_CAN_SMILES>
CC(=O)NCC1=C(C(=C(C(=C1I)C(=O)O)I)NC(=O)C)I

> <PUBCHEM_OPENEYE_ISO_SMILES>
CC(=O)NCC1=C(C(=C(C(=C1I)C(=O)O)I)NC(=O)C)I

> <PUBCHEM_CACTVS_TPSA>
95.5

> <PUBCHEM_MONOISOTOPIC_WEIGHT>
627.785301

> <PUBCHEM_TOTAL_CHARGE>
0

> <PUBCHEM_HEAVY_ATOM_COUNT>
21

> <PUBCHEM_ATOM_DEF_STEREO_COUNT>
0

> <PUBCHEM_ATOM_UDEF_STEREO_COUNT>
0

> <PUBCHEM_BOND_DEF_STEREO_COUNT>
0

> <PUBCHEM_BOND_UDEF_STEREO_COUNT>
0

> <PUBCHEM_ISOTOPIC_ATOM_COUNT>
0

> <PUBCHEM_COMPONENT_COUNT>
1

> <PUBCHEM_CACTVS_TAUTO_COUNT>
6

> <PUBCHEM_COORDINATE_TYPE>
1
5
255

> <PUBCHEM_BONDANNOTATIONS>
10  12  8
10  14  8
12  13  8
13  16  8
14  15  8
15  16  8

> <DRUG_ID>
w265

> <DRUG_NAME>
Iodamide

$$$$
2577
  CDK     0927151942
null
 34 34  0  0  0  0  0  0  0  0999 V2000
    5.4641    3.5000    0.0000 F   0  0  0  0  0  0  0  0  0  0  0  0
    2.8660    0.0000    0.0000 O   0  0  0  0  0  0  0  0  0  0  0  0
    2.0000    1.5000    0.0000 O   0  0  0  0  0  0  0  0  0  0  0  0
    3.7320    4.5000    0.0000 O   0  0  0  0  0  0  0  0  0  0  0  0
    4.5981    0.0000    0.0000 N   0  0  0  0  0  0  0  0  0  0  0  0
    3.7320    1.5000    0.0000 N   0  0  0  0  0  0  0  0  0  0  0  0
    2.8660    3.0000    0.0000 N   0  0  0  0  0  0  0  0  0  0  0  0
    5.4641   -2.5000    0.0000 C   0  0  0  0  0  0  0  0  0  0  0  0
    5.4641   -1.5000    0.0000 C   0  0  0  0  0  0  0  0  0  0  0  0
    6.3301   -3.0000    0.0000 C   0  0  0  0  0  0  0  0  0  0  0  0
    4.5981   -1.0000    0.0000 C   0  0  0  0  0  0  0  0  0  0  0  0
    6.3301   -4.0000    0.0000 C   0  0  0  0  0  0  0  0  0  0  0  0
    7.1962   -4.5000    0.0000 C   0  0  0  0  0  0  0  0  0  0  0  0
    3.7320    0.5000    0.0000 C   0  0  0  0  0  0  0  0  0  0  0  0
    2.8660    2.0000    0.0000 C   0  0  0  0  0  0  0  0  0  0  0  0
    4.5981    2.0000    0.0000 C   0  0  0  0  0  0  0  0  0  0  0  0
    4.5981    3.0000    0.0000 C   0  0  0  0  0  0  0  0  0  0  0  0
    3.7320    3.5000    0.0000 C   0  0  0  0  0  0  0  0  0  0  0  0
    4.8535   -2.3923    0.0000 H   0  0  0  0  0  0  0  0  0  0  0  0
    5.2520   -3.0826    0.0000 H   0  0  0  0  0  0  0  0  0  0  0  0
    6.0747   -1.6077    0.0000 H   0  0  0  0  0  0  0  0  0  0  0  0
    5.6762   -0.9174    0.0000 H   0  0  0  0  0  0  0  0  0  0  0  0
    6.9407   -3.1077    0.0000 H   0  0  0  0  0  0  0  0  0  0  0  0
    6.5422   -2.4174    0.0000 H   0  0  0  0  0  0  0  0  0  0  0  0
    3.9875   -0.8923    0.0000 H   0  0  0  0  0  0  0  0  0  0  0  0
    4.3860   -1.5826    0.0000 H   0  0  0  0  0  0  0  0  0  0  0  0
    5.7196   -3.8923    0.0000 H   0  0  0  0  0  0  0  0  0  0  0  0
    6.1181   -4.5826    0.0000 H   0  0  0  0  0  0  0  0  0  0  0  0
    5.1350    0.3100    0.0000 H   0  0  0  0  0  0  0  0  0  0  0  0
    6.8862   -5.0369    0.0000 H   0  0  0  0  0  0  0  0  0  0  0  0
    7.7331   -4.8100    0.0000 H   0  0  0  0  0  0  0  0  0  0  0  0
    7.5062   -3.9631    0.0000 H   0  0  0  0  0  0  0  0  0  0  0  0
    5.1350    1.6900    0.0000 H   0  0  0  0  0  0  0  0  0  0  0  0
    2.3291    3.3100    0.0000 H   0  0  0  0  0  0  0  0  0  0  0  0
  1 17  1  0  0  0  0 
  2 14  2  0  0  0  0 
  3 15  2  0  0  0  0 
  4 18  2  0  0  0  0 
  5 11  1  0  0  0  0 
  5 14  1  0  0  0  0 
  5 29  1  0  0  0  0 
  6 14  1  0  0  0  0 
  6 15  1  0  0  0  0 
  6 16  1  0  0  0  0 
  7 15  1  0  0  0  0 
  7 18  1  0  0  0  0 
  7 34  1  0  0  0  0 
  8  9  1  0  0  0  0 
  8 10  1  0  0  0  0 
  8 19  1  0  0  0  0 
  8 20  1  0  0  0  0 
  9 11  1  0  0  0  0 
  9 21  1  0  0  0  0 
  9 22  1  0  0  0  0 
 10 12  1  0  0  0  0 
 10 23  1  0  0  0  0 
 10 24  1  0  0  0  0 
 11 25  1  0  0  0  0 
 11 26  1  0  0  0  0 
 12 13  1  0  0  0  0 
 12 27  1  0  0  0  0 
 12 28  1  0  0  0  0 
 13 30  1  0  0  0  0 
 13 31  1  0  0  0  0 
 13 32  1  0  0  0  0 
 16 17  2  0  0  0  0 
 16 33  1  0  0  0  0 
 17 18  1  0  0  0  0 
M  END
> <cdk:Title>
2577

> <cdk:Remark>
null

> <PUBCHEM_COMPOUND_CID>
2577

> <PUBCHEM_COMPOUND_CANONICALIZED>
1

> <PUBCHEM_CACTVS_COMPLEXITY>
382

> <PUBCHEM_CACTVS_HBOND_ACCEPTOR>
4

> <PUBCHEM_CACTVS_HBOND_DONOR>
2

> <PUBCHEM_CACTVS_ROTATABLE_BOND>
5

> <PUBCHEM_CACTVS_SUBSKEYS>
AAADceBzMQAAAAAAAAAAAAAAAAAAAAAAAAAgAAAAAAAAAAAAAAAAHwAQAAAACADBgAQDAAPAAACIAAFWUACAAAAAAAAAAIAIAECAAAIAgAAEAAAIFyIAAMEQAAAAAAAAAAAAAAAAAAAAAAAAAAAAAAAAAA==

> <PUBCHEM_IUPAC_OPENEYE_NAME>
5-fluoro-N-hexyl-2,4-dioxo-pyrimidine-1-carboxamide

> <PUBCHEM_IUPAC_CAS_NAME>
5-fluoro-N-hexyl-2,4-dioxo-1-pyrimidinecarboxamide

> <PUBCHEM_IUPAC_NAME>
5-fluoro-N-hexyl-2,4-dioxopyrimidine-1-carboxamide

> <PUBCHEM_IUPAC_SYSTEMATIC_NAME>
5-fluoranyl-N-hexyl-2,4-bis(oxidanylidene)pyrimidine-1-carboxamide

> <PUBCHEM_IUPAC_TRADITIONAL_NAME>
5-fluoro-N-hexyl-2,4-diketo-pyrimidine-1-carboxamide

> <PUBCHEM_IUPAC_INCHI>
InChI=1S/C11H16FN3O3/c1-2-3-4-5-6-13-10(17)15-7-8(12)9(16)14-11(15)18/h7H,2-6H2,1H3,(H,13,17)(H,14,16,18)

> <PUBCHEM_IUPAC_INCHIKEY>
AOCCBINRVIKJHY-UHFFFAOYSA-N

> <PUBCHEM_XLOGP3>
2.6

> <PUBCHEM_EXACT_MASS>
257.11757

> <PUBCHEM_MOLECULAR_FORMULA>
C11H16FN3O3

> <PUBCHEM_MOLECULAR_WEIGHT>
257.261443

> <PUBCHEM_OPENEYE_CAN_SMILES>
CCCCCCNC(=O)N1C=C(C(=O)NC1=O)F

> <PUBCHEM_OPENEYE_ISO_SMILES>
CCCCCCNC(=O)N1C=C(C(=O)NC1=O)F

> <PUBCHEM_CACTVS_TPSA>
78.5

> <PUBCHEM_MONOISOTOPIC_WEIGHT>
257.11757

> <PUBCHEM_TOTAL_CHARGE>
0

> <PUBCHEM_HEAVY_ATOM_COUNT>
18

> <PUBCHEM_ATOM_DEF_STEREO_COUNT>
0

> <PUBCHEM_ATOM_UDEF_STEREO_COUNT>
0

> <PUBCHEM_BOND_DEF_STEREO_COUNT>
0

> <PUBCHEM_BOND_UDEF_STEREO_COUNT>
0

> <PUBCHEM_ISOTOPIC_ATOM_COUNT>
0

> <PUBCHEM_COMPONENT_COUNT>
1

> <PUBCHEM_CACTVS_TAUTO_COUNT>
6

> <PUBCHEM_COORDINATE_TYPE>
1
5
255

> <PUBCHEM_BONDANNOTATIONS>
16  17  8
17  18  8
6  15  8
6  16  8
7  15  8
7  18  8

> <DRUG_ID>
w271

> <DRUG_NAME>
Carmofur

$$$$
5773
  CDK     0927151942
null
 45 48  0  0  0  0  0  0  0  0999 V2000
    6.3301   -1.2307    0.0000 S   0  0  0  0  0  0  0  0  0  0  0  0
   12.3245   -2.2693    0.0000 S   0  0  0  0  0  0  0  0  0  0  0  0
    8.9101    0.9820    0.0000 O   0  0  0  0  0  0  0  0  0  0  0  0
    5.4641    2.2693    0.0000 O   0  0  0  0  0  0  0  0  0  0  0  0
    7.1962    2.2693    0.0000 O   0  0  0  0  0  0  0  0  0  0  0  0
   10.1373   -0.2212    0.0000 O   0  0  0  0  0  0  0  0  0  0  0  0
    7.1962    0.2693    0.0000 N   0  0  0  0  0  0  0  0  0  0  0  0
    8.9101   -1.4434    0.0000 N   0  0  0  0  0  0  0  0  0  0  0  0
    3.7320    0.2693    0.0000 N   0  0  0  0  0  0  0  0  0  0  0  0
    7.1962   -0.7307    0.0000 C   0  0  1  0  0  0  0  0  0  0  0  0
    8.2044   -0.7349    0.0000 C   0  0  1  0  0  0  0  0  0  0  0  0
    8.2044    0.2734    0.0000 C   0  0  0  0  0  0  0  0  0  0  0  0
    6.3301    0.7693    0.0000 C   0  0  0  0  0  0  0  0  0  0  0  0
    5.4641    0.2693    0.0000 C   0  0  0  0  0  0  0  0  0  0  0  0
    5.4641   -0.7307    0.0000 C   0  0  0  0  0  0  0  0  0  0  0  0
    4.5981    0.7693    0.0000 C   0  0  0  0  0  0  0  0  0  0  0  0
    6.3301    1.7693    0.0000 C   0  0  0  0  0  0  0  0  0  0  0  0
    9.8765   -1.1866    0.0000 C   0  0  0  0  0  0  0  0  0  0  0  0
   10.5822   -1.8952    0.0000 C   0  0  0  0  0  0  0  0  0  0  0  0
    2.8660    0.7693    0.0000 C   0  0  0  0  0  0  0  0  0  0  0  0
    3.7320   -0.7307    0.0000 C   0  0  0  0  0  0  0  0  0  0  0  0
   11.5486   -1.6383    0.0000 C   0  0  0  0  0  0  0  0  0  0  0  0
    2.0000    0.2693    0.0000 C   0  0  0  0  0  0  0  0  0  0  0  0
    2.8660   -1.2307    0.0000 C   0  0  0  0  0  0  0  0  0  0  0  0
    2.0000   -0.7307    0.0000 C   0  0  0  0  0  0  0  0  0  0  0  0
   11.9089   -0.7055    0.0000 C   0  0  0  0  0  0  0  0  0  0  0  0
   12.9075   -0.7599    0.0000 C   0  0  0  0  0  0  0  0  0  0  0  0
   13.1643   -1.7263    0.0000 C   0  0  0  0  0  0  0  0  0  0  0  0
    7.4145   -1.5522    0.0000 H   0  0  0  0  0  0  0  0  0  0  0  0
    7.9654   -1.3070    0.0000 H   0  0  0  0  0  0  0  0  0  0  0  0
    4.8535   -0.6231    0.0000 H   0  0  0  0  0  0  0  0  0  0  0  0
    5.2520   -1.3134    0.0000 H   0  0  0  0  0  0  0  0  0  0  0  0
    8.7484   -2.0420    0.0000 H   0  0  0  0  0  0  0  0  0  0  0  0
    4.9966    1.2442    0.0000 H   0  0  0  0  0  0  0  0  0  0  0  0
    4.1996    1.2442    0.0000 H   0  0  0  0  0  0  0  0  0  0  0  0
   10.0736   -2.2498    0.0000 H   0  0  0  0  0  0  0  0  0  0  0  0
   10.8431   -2.4576    0.0000 H   0  0  0  0  0  0  0  0  0  0  0  0
    2.8660    1.3893    0.0000 H   0  0  0  0  0  0  0  0  0  0  0  0
    4.2690   -1.0407    0.0000 H   0  0  0  0  0  0  0  0  0  0  0  0
    1.4631    0.5793    0.0000 H   0  0  0  0  0  0  0  0  0  0  0  0
    2.8660   -1.8507    0.0000 H   0  0  0  0  0  0  0  0  0  0  0  0
   11.5723   -0.1848    0.0000 H   0  0  0  0  0  0  0  0  0  0  0  0
    1.4631   -1.0407    0.0000 H   0  0  0  0  0  0  0  0  0  0  0  0
   13.2986   -0.2789    0.0000 H   0  0  0  0  0  0  0  0  0  0  0  0
   13.7427   -1.9497    0.0000 H   0  0  0  0  0  0  0  0  0  0  0  0
  1 10  1  0  0  0  0 
  1 15  1  0  0  0  0 
  2 22  1  0  0  0  0 
  2 28  1  0  0  0  0 
  3 12  2  0  0  0  0 
  4 17  1  0  0  0  0 
  5 17  2  0  0  0  0 
  6 18  2  0  0  0  0 
  7 10  1  0  0  0  0 
  7 12  1  0  0  0  0 
  7 13  1  0  0  0  0 
 11  8  1  1  0  0  0 
  8 18  1  0  0  0  0 
  8 33  1  0  0  0  0 
  9 16  1  0  0  0  0 
  9 20  2  0  0  0  0 
  9 21  1  0  0  0  0 
 10 11  1  0  0  0  0 
 10 29  1  6  0  0  0 
 11 12  1  0  0  0  0 
 11 30  1  0  0  0  0 
 13 14  2  0  0  0  0 
 13 17  1  0  0  0  0 
 14 15  1  0  0  0  0 
 14 16  1  0  0  0  0 
 15 31  1  0  0  0  0 
 15 32  1  0  0  0  0 
 16 34  1  0  0  0  0 
 16 35  1  0  0  0  0 
 18 19  1  0  0  0  0 
 19 22  1  0  0  0  0 
 19 36  1  0  0  0  0 
 19 37  1  0  0  0  0 
 20 23  1  0  0  0  0 
 20 38  1  0  0  0  0 
 21 24  2  0  0  0  0 
 21 39  1  0  0  0  0 
 22 26  2  0  0  0  0 
 23 25  2  0  0  0  0 
 23 40  1  0  0  0  0 
 24 25  1  0  0  0  0 
 24 41  1  0  0  0  0 
 25 43  1  0  0  0  0 
 26 27  1  0  0  0  0 
 26 42  1  0  0  0  0 
 27 28  2  0  0  0  0 
 27 44  1  0  0  0  0 
 28 45  1  0  0  0  0 
M  CHG  1   4  -1
M  CHG  1   9   1
M  END
> <cdk:Title>
5773

> <cdk:Remark>
null

> <PUBCHEM_COMPOUND_CID>
5773

> <PUBCHEM_COMPOUND_CANONICALIZED>
1

> <PUBCHEM_CACTVS_COMPLEXITY>
687

> <PUBCHEM_CACTVS_HBOND_ACCEPTOR>
6

> <PUBCHEM_CACTVS_HBOND_DONOR>
1

> <PUBCHEM_CACTVS_ROTATABLE_BOND>
5

> <PUBCHEM_CACTVS_SUBSKEYS>
AAADceB7OABgAAAAAAAAAAAAAABYASAAAAAsQAAAAAAQAAAB4AAAHgQQAAAADCjF0gS8iZPMEAisAjX3XACDgKBxCjBI2Lm4ZNgKZPrglbGUMAhglgD4yQcYCAAAAAAAAAAAAAAAAAAAAAAAAAAAAAAAAA==

> <PUBCHEM_IUPAC_OPENEYE_NAME>
(6R,7R)-8-oxo-3-(pyridin-1-ium-1-ylmethyl)-7-[[2-(2-thienyl)acetyl]amino]-5-thia-1-azabicyclo[4.2.0]oct-2-ene-2-carboxylate

> <PUBCHEM_IUPAC_CAS_NAME>
(6R,7R)-8-oxo-7-[(1-oxo-2-thiophen-2-ylethyl)amino]-3-(1-pyridin-1-iumylmethyl)-5-thia-1-azabicyclo[4.2.0]oct-2-ene-2-carboxylate

> <PUBCHEM_IUPAC_NAME>
(6R,7R)-8-oxo-3-(pyridin-1-ium-1-ylmethyl)-7-[(2-thiophen-2-ylacetyl)amino]-5-thia-1-azabicyclo[4.2.0]oct-2-ene-2-carboxylate

> <PUBCHEM_IUPAC_SYSTEMATIC_NAME>
(6R,7R)-8-oxidanylidene-3-(pyridin-1-ium-1-ylmethyl)-7-(2-thiophen-2-ylethanoylamino)-5-thia-1-azabicyclo[4.2.0]oct-2-ene-2-carboxylate

> <PUBCHEM_IUPAC_TRADITIONAL_NAME>
(6R,7R)-8-keto-3-(pyridin-1-ium-1-ylmethyl)-7-[[2-(2-thienyl)acetyl]amino]-5-thia-1-azabicyclo[4.2.0]oct-2-ene-2-carboxylate

> <PUBCHEM_IUPAC_INCHI>
InChI=1S/C19H17N3O4S2/c23-14(9-13-5-4-8-27-13)20-15-17(24)22-16(19(25)26)12(11-28-18(15)22)10-21-6-2-1-3-7-21/h1-8,15,18H,9-11H2,(H-,20,23,25,26)/t15-,18-/m1/s1

> <PUBCHEM_IUPAC_INCHIKEY>
CZTQZXZIADLWOZ-CRAIPNDOSA-N

> <PUBCHEM_XLOGP3>
1.9

> <PUBCHEM_EXACT_MASS>
415.066048

> <PUBCHEM_MOLECULAR_FORMULA>
C19H17N3O4S2

> <PUBCHEM_MOLECULAR_WEIGHT>
415.48598

> <PUBCHEM_OPENEYE_CAN_SMILES>
C1C(=C(N2C(S1)C(C2=O)NC(=O)CC3=CC=CS3)C(=O)[O-])C[N+]4=CC=CC=C4

> <PUBCHEM_OPENEYE_ISO_SMILES>
C1C(=C(N2[C@H](S1)[C@@H](C2=O)NC(=O)CC3=CC=CS3)C(=O)[O-])C[N+]4=CC=CC=C4

> <PUBCHEM_CACTVS_TPSA>
147

> <PUBCHEM_MONOISOTOPIC_WEIGHT>
415.066048

> <PUBCHEM_TOTAL_CHARGE>
0

> <PUBCHEM_HEAVY_ATOM_COUNT>
28

> <PUBCHEM_ATOM_DEF_STEREO_COUNT>
2

> <PUBCHEM_ATOM_UDEF_STEREO_COUNT>
0

> <PUBCHEM_BOND_DEF_STEREO_COUNT>
0

> <PUBCHEM_BOND_UDEF_STEREO_COUNT>
0

> <PUBCHEM_ISOTOPIC_ATOM_COUNT>
0

> <PUBCHEM_COMPONENT_COUNT>
1

> <PUBCHEM_CACTVS_TAUTO_COUNT>
4

> <PUBCHEM_COORDINATE_TYPE>
1
5
255

> <PUBCHEM_BONDANNOTATIONS>
10  29  6
2  22  8
2  28  8
20  23  8
21  24  8
22  26  8
23  25  8
24  25  8
26  27  8
27  28  8
11  8  5
9  20  8
9  21  8

> <DRUG_ID>
w272

> <DRUG_NAME>
Cephaloridine

$$$$
30768
  CDK     0927151942
null
 38 40  0  0  0  0  0  0  0  0999 V2000
    8.1282   -0.4751    0.0000 Cl  0  0  0  0  0  0  0  0  0  0  0  0
    3.7320    0.0490    0.0000 O   0  0  0  0  0  0  0  0  0  0  0  0
    4.5981    1.5490    0.0000 N   0  0  0  0  0  0  0  0  0  0  0  0
    2.8660    1.5490    0.0000 N   0  0  0  0  0  0  0  0  0  0  0  0
    4.5981   -0.4510    0.0000 C   0  0  3  0  0  0  0  0  0  0  0  0
    5.4641    0.0490    0.0000 C   0  0  0  0  0  0  0  0  0  0  0  0
    4.0981   -1.3170    0.0000 C   0  0  0  0  0  0  0  0  0  0  0  0
    5.0981   -1.3170    0.0000 C   0  0  0  0  0  0  0  0  0  0  0  0
    5.4641    1.0490    0.0000 C   0  0  0  0  0  0  0  0  0  0  0  0
    6.3580   -0.4856    0.0000 C   0  0  0  0  0  0  0  0  0  0  0  0
    3.7320    1.0490    0.0000 C   0  0  0  0  0  0  0  0  0  0  0  0
    3.0981   -1.3170    0.0000 C   0  0  0  0  0  0  0  0  0  0  0  0
    4.5981   -2.1830    0.0000 C   0  0  0  0  0  0  0  0  0  0  0  0
    6.3580    1.5837    0.0000 C   0  0  0  0  0  0  0  0  0  0  0  0
    7.2641    0.0282    0.0000 C   0  0  0  0  0  0  0  0  0  0  0  0
    7.2641    1.0698    0.0000 C   0  0  0  0  0  0  0  0  0  0  0  0
    2.5981   -2.1830    0.0000 C   0  0  0  0  0  0  0  0  0  0  0  0
    4.0981   -3.0490    0.0000 C   0  0  0  0  0  0  0  0  0  0  0  0
    2.8660    2.5490    0.0000 C   0  0  0  0  0  0  0  0  0  0  0  0
    3.0981   -3.0490    0.0000 C   0  0  0  0  0  0  0  0  0  0  0  0
    2.0000    3.0490    0.0000 C   0  0  0  0  0  0  0  0  0  0  0  0
    4.5611   -1.6270    0.0000 H   0  0  0  0  0  0  0  0  0  0  0  0
    5.4081   -1.8539    0.0000 H   0  0  0  0  0  0  0  0  0  0  0  0
    5.6350   -1.0070    0.0000 H   0  0  0  0  0  0  0  0  0  0  0  0
    6.3509   -1.1056    0.0000 H   0  0  0  0  0  0  0  0  0  0  0  0
    2.7881   -0.7801    0.0000 H   0  0  0  0  0  0  0  0  0  0  0  0
    5.2181   -2.1830    0.0000 H   0  0  0  0  0  0  0  0  0  0  0  0
    6.3509    2.2037    0.0000 H   0  0  0  0  0  0  0  0  0  0  0  0
    7.7998    1.3819    0.0000 H   0  0  0  0  0  0  0  0  0  0  0  0
    2.3291    1.2390    0.0000 H   0  0  0  0  0  0  0  0  0  0  0  0
    1.9781   -2.1830    0.0000 H   0  0  0  0  0  0  0  0  0  0  0  0
    4.4081   -3.5860    0.0000 H   0  0  0  0  0  0  0  0  0  0  0  0
    3.4766    2.4414    0.0000 H   0  0  0  0  0  0  0  0  0  0  0  0
    3.0781    3.1316    0.0000 H   0  0  0  0  0  0  0  0  0  0  0  0
    2.7881   -3.5860    0.0000 H   0  0  0  0  0  0  0  0  0  0  0  0
    2.3100    3.5860    0.0000 H   0  0  0  0  0  0  0  0  0  0  0  0
    1.4631    3.3590    0.0000 H   0  0  0  0  0  0  0  0  0  0  0  0
    1.6900    2.5121    0.0000 H   0  0  0  0  0  0  0  0  0  0  0  0
  1 15  1  0  0  0  0 
  2  5  1  0  0  0  0 
  2 11  1  0  0  0  0 
  3  9  1  0  0  0  0 
  3 11  2  0  0  0  0 
  4 11  1  0  0  0  0 
  4 19  1  0  0  0  0 
  4 30  1  0  0  0  0 
  5  6  1  0  0  0  0 
  5  7  1  0  0  0  0 
  5  8  1  0  0  0  0 
  6  9  2  0  0  0  0 
  6 10  1  0  0  0  0 
  7 12  2  0  0  0  0 
  7 13  1  0  0  0  0 
  8 22  1  0  0  0  0 
  8 23  1  0  0  0  0 
  8 24  1  0  0  0  0 
  9 14  1  0  0  0  0 
 10 15  2  0  0  0  0 
 10 25  1  0  0  0  0 
 12 17  1  0  0  0  0 
 12 26  1  0  0  0  0 
 13 18  2  0  0  0  0 
 13 27  1  0  0  0  0 
 14 16  2  0  0  0  0 
 14 28  1  0  0  0  0 
 15 16  1  0  0  0  0 
 16 29  1  0  0  0  0 
 17 20  2  0  0  0  0 
 17 31  1  0  0  0  0 
 18 20  1  0  0  0  0 
 18 32  1  0  0  0  0 
 19 21  1  0  0  0  0 
 19 33  1  0  0  0  0 
 19 34  1  0  0  0  0 
 20 35  1  0  0  0  0 
 21 36  1  0  0  0  0 
 21 37  1  0  0  0  0 
 21 38  1  0  0  0  0 
M  END
> <cdk:Title>
30768

> <cdk:Remark>
null

> <PUBCHEM_COMPOUND_CID>
30768

> <PUBCHEM_COMPOUND_CANONICALIZED>
1

> <PUBCHEM_CACTVS_COMPLEXITY>
394

> <PUBCHEM_CACTVS_HBOND_ACCEPTOR>
2

> <PUBCHEM_CACTVS_HBOND_DONOR>
1

> <PUBCHEM_CACTVS_ROTATABLE_BOND>
3

> <PUBCHEM_CACTVS_SUBSKEYS>
AAADceB7IAAEAAAAAAAAAAAAAAAAAAAAAAAwYIAAAAAAAACBQAAAHgIQAAAADE7BmCQzwILABACgAiRCZACCAAEgBwAJiIAIbokIJiKBu5mIMABm0AEI6AeQwOAOgABAIAACAAAAAIBAAAQAAAAAAAAAAA==

> <PUBCHEM_IUPAC_OPENEYE_NAME>
6-chloro-N-ethyl-4-methyl-4-phenyl-3,1-benzoxazin-2-amine

> <PUBCHEM_IUPAC_CAS_NAME>
6-chloro-N-ethyl-4-methyl-4-phenyl-3,1-benzoxazin-2-amine

> <PUBCHEM_IUPAC_NAME>
6-chloro-N-ethyl-4-methyl-4-phenyl-3,1-benzoxazin-2-amine

> <PUBCHEM_IUPAC_SYSTEMATIC_NAME>
6-chloranyl-N-ethyl-4-methyl-4-phenyl-3,1-benzoxazin-2-amine

> <PUBCHEM_IUPAC_TRADITIONAL_NAME>
(6-chloro-4-methyl-4-phenyl-3,1-benzoxazin-2-yl)-ethyl-amine

> <PUBCHEM_IUPAC_INCHI>
InChI=1S/C17H17ClN2O/c1-3-19-16-20-15-10-9-13(18)11-14(15)17(2,21-16)12-7-5-4-6-8-12/h4-11H,3H2,1-2H3,(H,19,20)

> <PUBCHEM_IUPAC_INCHIKEY>
IBYCYJFUEJQSMK-UHFFFAOYSA-N

> <PUBCHEM_XLOGP3_AA>
4

> <PUBCHEM_EXACT_MASS>
300.102941

> <PUBCHEM_MOLECULAR_FORMULA>
C17H17ClN2O

> <PUBCHEM_MOLECULAR_WEIGHT>
300.78268

> <PUBCHEM_OPENEYE_CAN_SMILES>
CCNC1=NC2=C(C=C(C=C2)Cl)C(O1)(C)C3=CC=CC=C3

> <PUBCHEM_OPENEYE_ISO_SMILES>
CCNC1=NC2=C(C=C(C=C2)Cl)C(O1)(C)C3=CC=CC=C3

> <PUBCHEM_CACTVS_TPSA>
33.6

> <PUBCHEM_MONOISOTOPIC_WEIGHT>
300.102941

> <PUBCHEM_TOTAL_CHARGE>
0

> <PUBCHEM_HEAVY_ATOM_COUNT>
21

> <PUBCHEM_ATOM_DEF_STEREO_COUNT>
0

> <PUBCHEM_ATOM_UDEF_STEREO_COUNT>
1

> <PUBCHEM_BOND_DEF_STEREO_COUNT>
0

> <PUBCHEM_BOND_UDEF_STEREO_COUNT>
0

> <PUBCHEM_ISOTOPIC_ATOM_COUNT>
0

> <PUBCHEM_COMPONENT_COUNT>
1

> <PUBCHEM_CACTVS_TAUTO_COUNT>
2

> <PUBCHEM_COORDINATE_TYPE>
1
5
255

> <PUBCHEM_BONDANNOTATIONS>
10  15  8
12  17  8
13  18  8
14  16  8
15  16  8
17  20  8
18  20  8
5  8  3
6  10  8
6  9  8
7  12  8
7  13  8
9  14  8

> <DRUG_ID>
w275

> <DRUG_NAME>
Etifoxine

$$$$
3306
  CDK     0927151942
null
 28 28  0  0  0  0  0  0  0  0999 V2000
    2.8660    0.8100    0.0000 O   0  0  0  0  0  0  0  0  0  0  0  0
    2.0000   -2.6900    0.0000 O   0  0  0  0  0  0  0  0  0  0  0  0
    4.5981    1.8100    0.0000 N   0  0  0  0  0  0  0  0  0  0  0  0
    3.7320    0.3100    0.0000 C   0  0  3  0  0  0  0  0  0  0  0  0
    4.5981    0.8100    0.0000 C   0  0  0  0  0  0  0  0  0  0  0  0
    3.7320   -0.6900    0.0000 C   0  0  0  0  0  0  0  0  0  0  0  0
    5.4641    2.3100    0.0000 C   0  0  0  0  0  0  0  0  0  0  0  0
    2.8660   -1.1900    0.0000 C   0  0  0  0  0  0  0  0  0  0  0  0
    4.5981   -1.1900    0.0000 C   0  0  0  0  0  0  0  0  0  0  0  0
    2.8660   -2.1900    0.0000 C   0  0  0  0  0  0  0  0  0  0  0  0
    4.5981   -2.1900    0.0000 C   0  0  0  0  0  0  0  0  0  0  0  0
    5.4641    3.3100    0.0000 C   0  0  0  0  0  0  0  0  0  0  0  0
    3.7320   -2.6900    0.0000 C   0  0  0  0  0  0  0  0  0  0  0  0
    3.7320    1.1600    0.0000 H   0  0  0  0  0  0  0  0  0  0  0  0
    4.8101    0.2274    0.0000 H   0  0  0  0  0  0  0  0  0  0  0  0
    5.2087    0.9177    0.0000 H   0  0  0  0  0  0  0  0  0  0  0  0
    4.0611    2.1200    0.0000 H   0  0  0  0  0  0  0  0  0  0  0  0
    5.6762    1.7274    0.0000 H   0  0  0  0  0  0  0  0  0  0  0  0
    6.0747    2.4177    0.0000 H   0  0  0  0  0  0  0  0  0  0  0  0
    2.3291   -0.8800    0.0000 H   0  0  0  0  0  0  0  0  0  0  0  0
    5.1350   -0.8800    0.0000 H   0  0  0  0  0  0  0  0  0  0  0  0
    2.8660    1.4300    0.0000 H   0  0  0  0  0  0  0  0  0  0  0  0
    5.1350   -2.5000    0.0000 H   0  0  0  0  0  0  0  0  0  0  0  0
    6.0841    3.3100    0.0000 H   0  0  0  0  0  0  0  0  0  0  0  0
    5.4641    3.9300    0.0000 H   0  0  0  0  0  0  0  0  0  0  0  0
    4.8441    3.3100    0.0000 H   0  0  0  0  0  0  0  0  0  0  0  0
    3.7320   -3.3100    0.0000 H   0  0  0  0  0  0  0  0  0  0  0  0
    2.0000   -3.3100    0.0000 H   0  0  0  0  0  0  0  0  0  0  0  0
  1  4  1  0  0  0  0 
  1 22  1  0  0  0  0 
  2 10  1  0  0  0  0 
  2 28  1  0  0  0  0 
  3  5  1  0  0  0  0 
  3  7  1  0  0  0  0 
  3 17  1  0  0  0  0 
  4  5  1  0  0  0  0 
  4  6  1  0  0  0  0 
  4 14  1  0  0  0  0 
  5 15  1  0  0  0  0 
  5 16  1  0  0  0  0 
  6  8  2  0  0  0  0 
  6  9  1  0  0  0  0 
  7 12  1  0  0  0  0 
  7 18  1  0  0  0  0 
  7 19  1  0  0  0  0 
  8 10  1  0  0  0  0 
  8 20  1  0  0  0  0 
  9 11  2  0  0  0  0 
  9 21  1  0  0  0  0 
 10 13  2  0  0  0  0 
 11 13  1  0  0  0  0 
 11 23  1  0  0  0  0 
 12 24  1  0  0  0  0 
 12 25  1  0  0  0  0 
 12 26  1  0  0  0  0 
 13 27  1  0  0  0  0 
M  END
> <cdk:Title>
3306

> <cdk:Remark>
null

> <PUBCHEM_COMPOUND_CID>
3306

> <PUBCHEM_COMPOUND_CANONICALIZED>
1

> <PUBCHEM_CACTVS_COMPLEXITY>
141

> <PUBCHEM_CACTVS_HBOND_ACCEPTOR>
3

> <PUBCHEM_CACTVS_HBOND_DONOR>
3

> <PUBCHEM_CACTVS_ROTATABLE_BOND>
4

> <PUBCHEM_CACTVS_SUBSKEYS>
AAADccByMAAAAAAAAAAAAAAAAAAAAAAAAAAwAAAAAAAAAAABAAAAHgAQCAAADBThmAYyBoLAAgCAAiBCAAACAAAgIAAIiIAOCIgKNiKCkROEcAAk0BGYmAfQ0LIOAAABAAAAAAAAAAIAAAAAAAAAAAAAAA==

> <PUBCHEM_IUPAC_OPENEYE_NAME>
3-[2-(ethylamino)-1-hydroxy-ethyl]phenol

> <PUBCHEM_IUPAC_CAS_NAME>
3-[2-(ethylamino)-1-hydroxyethyl]phenol

> <PUBCHEM_IUPAC_NAME>
3-[2-(ethylamino)-1-hydroxyethyl]phenol

> <PUBCHEM_IUPAC_SYSTEMATIC_NAME>
3-[2-(ethylamino)-1-oxidanyl-ethyl]phenol

> <PUBCHEM_IUPAC_TRADITIONAL_NAME>
3-[2-(ethylamino)-1-hydroxy-ethyl]phenol

> <PUBCHEM_IUPAC_INCHI>
InChI=1S/C10H15NO2/c1-2-11-7-10(13)8-4-3-5-9(12)6-8/h3-6,10-13H,2,7H2,1H3

> <PUBCHEM_IUPAC_INCHIKEY>
SQVIAVUSQAWMKL-UHFFFAOYSA-N

> <PUBCHEM_XLOGP3>
0.1

> <PUBCHEM_EXACT_MASS>
181.110279

> <PUBCHEM_MOLECULAR_FORMULA>
C10H15NO2

> <PUBCHEM_MOLECULAR_WEIGHT>
181.2316

> <PUBCHEM_OPENEYE_CAN_SMILES>
CCNCC(C1=CC(=CC=C1)O)O

> <PUBCHEM_OPENEYE_ISO_SMILES>
CCNCC(C1=CC(=CC=C1)O)O

> <PUBCHEM_CACTVS_TPSA>
52.5

> <PUBCHEM_MONOISOTOPIC_WEIGHT>
181.110279

> <PUBCHEM_TOTAL_CHARGE>
0

> <PUBCHEM_HEAVY_ATOM_COUNT>
13

> <PUBCHEM_ATOM_DEF_STEREO_COUNT>
0

> <PUBCHEM_ATOM_UDEF_STEREO_COUNT>
1

> <PUBCHEM_BOND_DEF_STEREO_COUNT>
0

> <PUBCHEM_BOND_UDEF_STEREO_COUNT>
0

> <PUBCHEM_ISOTOPIC_ATOM_COUNT>
0

> <PUBCHEM_COMPONENT_COUNT>
1

> <PUBCHEM_CACTVS_TAUTO_COUNT>
3

> <PUBCHEM_COORDINATE_TYPE>
1
5
255

> <PUBCHEM_BONDANNOTATIONS>
10  13  8
11  13  8
4  14  3
6  8  8
6  9  8
8  10  8
9  11  8

> <DRUG_ID>
w276

> <DRUG_NAME>
Etilefrine

$$$$
3360
  CDK     0927151942
null
 46 48  0  0  0  0  0  0  0  0999 V2000
    6.3349   -5.6723    0.0000 F   0  0  0  0  0  0  0  0  0  0  0  0
    7.3464   -4.6839    0.0000 F   0  0  0  0  0  0  0  0  0  0  0  0
    5.3466   -4.6608    0.0000 F   0  0  0  0  0  0  0  0  0  0  0  0
    4.5981    2.3623    0.0000 O   0  0  0  0  0  0  0  0  0  0  0  0
    4.5981    4.3623    0.0000 O   0  0  0  0  0  0  0  0  0  0  0  0
    6.3301    5.3623    0.0000 O   0  0  0  0  0  0  0  0  0  0  0  0
    5.4641    0.8623    0.0000 O   0  0  0  0  0  0  0  0  0  0  0  0
    4.5981   -0.6377    0.0000 N   0  0  0  0  0  0  0  0  0  0  0  0
    4.5981   -3.6377    0.0000 N   0  0  0  0  0  0  0  0  0  0  0  0
    5.4641   -2.1377    0.0000 C   0  0  0  0  0  0  0  0  0  0  0  0
    4.5981   -1.6377    0.0000 C   0  0  0  0  0  0  0  0  0  0  0  0
    5.4641   -3.1377    0.0000 C   0  0  0  0  0  0  0  0  0  0  0  0
    6.3580   -3.6724    0.0000 C   0  0  0  0  0  0  0  0  0  0  0  0
    3.7320   -0.1377    0.0000 C   0  0  0  0  0  0  0  0  0  0  0  0
    6.3580   -1.6031    0.0000 C   0  0  0  0  0  0  0  0  0  0  0  0
    3.7320    0.8623    0.0000 C   0  0  0  0  0  0  0  0  0  0  0  0
    3.7320   -2.1377    0.0000 C   0  0  0  0  0  0  0  0  0  0  0  0
    7.2641   -3.1586    0.0000 C   0  0  0  0  0  0  0  0  0  0  0  0
    7.2641   -2.1169    0.0000 C   0  0  0  0  0  0  0  0  0  0  0  0
    5.4641    3.8623    0.0000 C   0  0  3  0  0  0  0  0  0  0  0  0
    5.4641    2.8623    0.0000 C   0  0  0  0  0  0  0  0  0  0  0  0
    6.3465   -4.6723    0.0000 C   0  0  0  0  0  0  0  0  0  0  0  0
    2.8660   -0.6377    0.0000 C   0  0  0  0  0  0  0  0  0  0  0  0
    3.7320   -3.1377    0.0000 C   0  0  0  0  0  0  0  0  0  0  0  0
    2.8660    1.3623    0.0000 C   0  0  0  0  0  0  0  0  0  0  0  0
    4.5981    1.3623    0.0000 C   0  0  0  0  0  0  0  0  0  0  0  0
    2.0000   -0.1377    0.0000 C   0  0  0  0  0  0  0  0  0  0  0  0
    6.3301    4.3623    0.0000 C   0  0  0  0  0  0  0  0  0  0  0  0
    2.0000    0.8623    0.0000 C   0  0  0  0  0  0  0  0  0  0  0  0
    5.1350   -0.3277    0.0000 H   0  0  0  0  0  0  0  0  0  0  0  0
    6.3509   -0.9831    0.0000 H   0  0  0  0  0  0  0  0  0  0  0  0
    3.1951   -1.8277    0.0000 H   0  0  0  0  0  0  0  0  0  0  0  0
    7.7998   -3.4706    0.0000 H   0  0  0  0  0  0  0  0  0  0  0  0
    7.7998   -1.8048    0.0000 H   0  0  0  0  0  0  0  0  0  0  0  0
    5.4641    4.4823    0.0000 H   0  0  0  0  0  0  0  0  0  0  0  0
    5.6762    2.2796    0.0000 H   0  0  0  0  0  0  0  0  0  0  0  0
    6.0747    2.9699    0.0000 H   0  0  0  0  0  0  0  0  0  0  0  0
    2.8660   -1.2577    0.0000 H   0  0  0  0  0  0  0  0  0  0  0  0
    3.1951   -3.4477    0.0000 H   0  0  0  0  0  0  0  0  0  0  0  0
    2.8660    1.9823    0.0000 H   0  0  0  0  0  0  0  0  0  0  0  0
    6.5422    3.7796    0.0000 H   0  0  0  0  0  0  0  0  0  0  0  0
    6.9407    4.4699    0.0000 H   0  0  0  0  0  0  0  0  0  0  0  0
    1.4631   -0.4477    0.0000 H   0  0  0  0  0  0  0  0  0  0  0  0
    1.4631    1.1723    0.0000 H   0  0  0  0  0  0  0  0  0  0  0  0
    4.5981    4.9823    0.0000 H   0  0  0  0  0  0  0  0  0  0  0  0
    6.8671    5.6723    0.0000 H   0  0  0  0  0  0  0  0  0  0  0  0
  1 22  1  0  0  0  0 
  2 22  1  0  0  0  0 
  3 22  1  0  0  0  0 
  4 21  1  0  0  0  0 
  4 26  1  0  0  0  0 
  5 20  1  0  0  0  0 
  5 45  1  0  0  0  0 
  6 28  1  0  0  0  0 
  6 46  1  0  0  0  0 
  7 26  2  0  0  0  0 
  8 11  1  0  0  0  0 
  8 14  1  0  0  0  0 
  8 30  1  0  0  0  0 
  9 12  2  0  0  0  0 
  9 24  1  0  0  0  0 
 10 11  2  0  0  0  0 
 10 12  1  0  0  0  0 
 10 15  1  0  0  0  0 
 11 17  1  0  0  0  0 
 12 13  1  0  0  0  0 
 13 18  2  0  0  0  0 
 13 22  1  0  0  0  0 
 14 16  1  0  0  0  0 
 14 23  2  0  0  0  0 
 15 19  2  0  0  0  0 
 15 31  1  0  0  0  0 
 16 25  2  0  0  0  0 
 16 26  1  0  0  0  0 
 17 24  2  0  0  0  0 
 17 32  1  0  0  0  0 
 18 19  1  0  0  0  0 
 18 33  1  0  0  0  0 
 19 34  1  0  0  0  0 
 20 21  1  0  0  0  0 
 20 28  1  0  0  0  0 
 20 35  1  0  0  0  0 
 21 36  1  0  0  0  0 
 21 37  1  0  0  0  0 
 23 27  1  0  0  0  0 
 23 38  1  0  0  0  0 
 24 39  1  0  0  0  0 
 25 29  1  0  0  0  0 
 25 40  1  0  0  0  0 
 27 29  2  0  0  0  0 
 27 43  1  0  0  0  0 
 28 41  1  0  0  0  0 
 28 42  1  0  0  0  0 
 29 44  1  0  0  0  0 
M  END
> <cdk:Title>
3360

> <cdk:Remark>
null

> <PUBCHEM_COMPOUND_CID>
3360

> <PUBCHEM_COMPOUND_CANONICALIZED>
1

> <PUBCHEM_CACTVS_COMPLEXITY>
548

> <PUBCHEM_CACTVS_HBOND_ACCEPTOR>
9

> <PUBCHEM_CACTVS_HBOND_DONOR>
3

> <PUBCHEM_CACTVS_ROTATABLE_BOND>
7

> <PUBCHEM_CACTVS_SUBSKEYS>
AAADceB7OYAAAAAAAAAAAAAAAAAAAAAAAAA8YIAAAAAAAACx9AAAHwAQCAAADBzhnhY8yPLIFgCoAzT3TACCgCA1AiAI2CE4bNgJNvrA9dmGdYhn0AHL6ceYyOCOAAACAAACAAAAAAQAAAQAAAAAAAAAAA==

> <PUBCHEM_IUPAC_OPENEYE_NAME>
2,3-dihydroxypropyl 2-[[8-(trifluoromethyl)-4-quinolyl]amino]benzoate

> <PUBCHEM_IUPAC_CAS_NAME>
2-[[8-(trifluoromethyl)-4-quinolinyl]amino]benzoic acid 2,3-dihydroxypropyl ester

> <PUBCHEM_IUPAC_NAME>
2,3-dihydroxypropyl 2-[[8-(trifluoromethyl)quinolin-4-yl]amino]benzoate

> <PUBCHEM_IUPAC_SYSTEMATIC_NAME>
2,3-bis(oxidanyl)propyl 2-[[8-(trifluoromethyl)quinolin-4-yl]amino]benzoate

> <PUBCHEM_IUPAC_TRADITIONAL_NAME>
2-[[8-(trifluoromethyl)-4-quinolyl]amino]benzoic acid glyceryl ester

> <PUBCHEM_IUPAC_INCHI>
InChI=1S/C20H17F3N2O4/c21-20(22,23)15-6-3-5-13-17(8-9-24-18(13)15)25-16-7-2-1-4-14(16)19(28)29-11-12(27)10-26/h1-9,12,26-27H,10-11H2,(H,24,25)

> <PUBCHEM_IUPAC_INCHIKEY>
APQPGQGAWABJLN-UHFFFAOYSA-N

> <PUBCHEM_XLOGP3_AA>
3.7

> <PUBCHEM_EXACT_MASS>
406.114042

> <PUBCHEM_MOLECULAR_FORMULA>
C20H17F3N2O4

> <PUBCHEM_MOLECULAR_WEIGHT>
406.35519

> <PUBCHEM_OPENEYE_CAN_SMILES>
C1=CC=C(C(=C1)C(=O)OCC(CO)O)NC2=C3C=CC=C(C3=NC=C2)C(F)(F)F

> <PUBCHEM_OPENEYE_ISO_SMILES>
C1=CC=C(C(=C1)C(=O)OCC(CO)O)NC2=C3C=CC=C(C3=NC=C2)C(F)(F)F

> <PUBCHEM_CACTVS_TPSA>
91.7

> <PUBCHEM_MONOISOTOPIC_WEIGHT>
406.114042

> <PUBCHEM_TOTAL_CHARGE>
0

> <PUBCHEM_HEAVY_ATOM_COUNT>
29

> <PUBCHEM_ATOM_DEF_STEREO_COUNT>
0

> <PUBCHEM_ATOM_UDEF_STEREO_COUNT>
1

> <PUBCHEM_BOND_DEF_STEREO_COUNT>
0

> <PUBCHEM_BOND_UDEF_STEREO_COUNT>
0

> <PUBCHEM_ISOTOPIC_ATOM_COUNT>
0

> <PUBCHEM_COMPONENT_COUNT>
1

> <PUBCHEM_CACTVS_TAUTO_COUNT>
6

> <PUBCHEM_COORDINATE_TYPE>
1
5
255

> <PUBCHEM_BONDANNOTATIONS>
10  11  8
10  12  8
10  15  8
11  17  8
12  13  8
13  18  8
14  16  8
14  23  8
15  19  8
16  25  8
17  24  8
18  19  8
23  27  8
25  29  8
27  29  8
20  5  3
9  12  8
9  24  8

> <DRUG_ID>
w278

> <DRUG_NAME>
Floctafenine

$$$$
